13
     RDKit          3D

 13 12  0  0  0  0  0  0  0  0999 V2000
  -18.7106    6.5014   -3.6179 C   0  0  0  0  0  0  0  0  0  0  0  0
  -17.6855    7.6475   -3.4818 C   0  0  0  0  0  0  0  0  0  0  0  0
  -16.8825    7.3962   -2.2225 C   0  0  0  0  0  0  0  0  0  0  0  0
  -17.0464    6.4148   -1.5150 O   0  0  0  0  0  0  0  0  0  0  0  0
  -15.9238    8.2949   -1.8815 N   0  0  0  0  0  0  0  0  0  0  0  0
  -15.1447    8.0924   -0.7243 O   0  0  0  0  0  0  0  0  0  0  0  0
  -19.3124    6.6838   -4.5089 H   0  0  0  0  0  0  0  0  0  0  0  0
  -19.3478    6.4969   -2.7308 H   0  0  0  0  0  0  0  0  0  0  0  0
  -18.1814    5.5506   -3.7085 H   0  0  0  0  0  0  0  0  0  0  0  0
  -18.2162    8.5822   -3.3628 H   0  0  0  0  0  0  0  0  0  0  0  0
  -17.0248    7.6432   -4.3378 H   0  0  0  0  0  0  0  0  0  0  0  0
  -15.7311    9.1350   -2.4506 H   0  0  0  0  0  0  0  0  0  0  0  0
  -15.4776    7.2418   -0.3463 H   0  0  0  0  0  0  0  0  0  0  0  0
  1  2  1  0
  1  7  1  0
  1  8  1  0
  1  9  1  0
  2  3  1  0
  2 10  1  0
  2 11  1  0
  3  4  2  0
  3  5  1  0
  5  6  1  0
  5 12  1  0
  6 13  1  0
M  END
> <intraLJ>
0.450     

> <intraEL>
2.510     

> <intraDihe>
5.851     

> <interLJ>
0.000     

> <interEJ>
0.000     

> <gridLJ>
-5.363    

> <gridEL>
0.000     

> <totalE>
3.448     

> <LGFE>
-5.363  

> <LE>
-0.894  

> <SMILES>
CCC(=O)NO

> <atom.dprop.GFE>
-0.42 -0.41 0 -1.9 -1.4 -1.3 0 0 0 0 0 0 0

> <atom.prop.CLASS>
PRPC PRPC NCLA GENA GEND MEOO NCLA NCLA NCLA NCLA NCLA NCLA NCLA

$$$$
13
     RDKit          3D

 13 12  0  0  0  0  0  0  0  0999 V2000
  -18.7550    1.7997   22.4415 C   0  0  0  0  0  0  0  0  0  0  0  0
  -20.0296    0.9392   22.5749 C   0  0  0  0  0  0  0  0  0  0  0  0
  -21.1709    1.8653   22.9402 C   0  0  0  0  0  0  0  0  0  0  0  0
  -21.2950    2.3614   24.0488 O   0  0  0  0  0  0  0  0  0  0  0  0
  -22.0823    2.1714   21.9816 N   0  0  0  0  0  0  0  0  0  0  0  0
  -23.1529    3.0399   22.2758 O   0  0  0  0  0  0  0  0  0  0  0  0
  -17.9199    1.1404   22.2023 H   0  0  0  0  0  0  0  0  0  0  0  0
  -18.5733    2.3029   23.3937 H   0  0  0  0  0  0  0  0  0  0  0  0
  -18.8953    2.5343   21.6459 H   0  0  0  0  0  0  0  0  0  0  0  0
  -19.8952    0.2339   23.3836 H   0  0  0  0  0  0  0  0  0  0  0  0
  -20.2419    0.4609   21.6286 H   0  0  0  0  0  0  0  0  0  0  0  0
  -22.0188    1.7932   21.0226 H   0  0  0  0  0  0  0  0  0  0  0  0
  -23.0170    3.2902   23.2224 H   0  0  0  0  0  0  0  0  0  0  0  0
  1  2  1  0
  1  7  1  0
  1  8  1  0
  1  9  1  0
  2  3  1  0
  2 10  1  0
  2 11  1  0
  3  4  2  0
  3  5  1  0
  5  6  1  0
  5 12  1  0
  6 13  1  0
M  END
> <intraLJ>
0.081     

> <intraEL>
2.431     

> <intraDihe>
5.892     

> <interLJ>
0.000     

> <interEJ>
0.000     

> <gridLJ>
-4.855    

> <gridEL>
0.000     

> <totalE>
3.549     

> <LGFE>
-4.855  

> <LE>
-0.809  

> <SMILES>
CCC(=O)NO

> <atom.dprop.GFE>
-0.34 -0.38 0 -1.7 -1.1 -1.3 0 0 0 0 0 0 0

> <atom.prop.CLASS>
PRPC PRPC NCLA GENA GEND MEOO NCLA NCLA NCLA NCLA NCLA NCLA NCLA

$$$$
13
     RDKit          3D

 13 12  0  0  0  0  0  0  0  0999 V2000
  -17.4473    4.6555    6.7271 C   0  0  0  0  0  0  0  0  0  0  0  0
  -18.4069    4.3132    7.8868 C   0  0  0  0  0  0  0  0  0  0  0  0
  -19.6939    5.0776    7.6568 C   0  0  0  0  0  0  0  0  0  0  0  0
  -19.9758    6.1007    8.2603 O   0  0  0  0  0  0  0  0  0  0  0  0
  -20.5598    4.6114    6.7208 N   0  0  0  0  0  0  0  0  0  0  0  0
  -21.7633    5.2998    6.4661 O   0  0  0  0  0  0  0  0  0  0  0  0
  -16.5066    4.1297    6.8940 H   0  0  0  0  0  0  0  0  0  0  0  0
  -17.2772    5.7344    6.7227 H   0  0  0  0  0  0  0  0  0  0  0  0
  -17.8936    4.3390    5.7821 H   0  0  0  0  0  0  0  0  0  0  0  0
  -17.9723    4.6558    8.8160 H   0  0  0  0  0  0  0  0  0  0  0  0
  -18.6122    3.2516    7.8830 H   0  0  0  0  0  0  0  0  0  0  0  0
  -20.3665    3.7597    6.1695 H   0  0  0  0  0  0  0  0  0  0  0  0
  -21.7406    6.0751    7.0790 H   0  0  0  0  0  0  0  0  0  0  0  0
  1  2  1  0
  1  7  1  0
  1  8  1  0
  1  9  1  0
  2  3  1  0
  2 10  1  0
  2 11  1  0
  3  4  2  0
  3  5  1  0
  5  6  1  0
  5 12  1  0
  6 13  1  0
M  END
> <intraLJ>
0.057     

> <intraEL>
2.367     

> <intraDihe>
5.916     

> <interLJ>
0.000     

> <interEJ>
0.000     

> <gridLJ>
-4.728    

> <gridEL>
0.000     

> <totalE>
3.612     

> <LGFE>
-4.728  

> <LE>
-0.788  

> <SMILES>
CCC(=O)NO

> <atom.dprop.GFE>
-0.49 -0.58 0 -1.8 -0.92 -0.94 0 0 0 0 0 0 0

> <atom.prop.CLASS>
PRPC PRPC NCLA GENA GEND MEOO NCLA NCLA NCLA NCLA NCLA NCLA NCLA

$$$$
13
     RDKit          3D

 13 12  0  0  0  0  0  0  0  0999 V2000
    4.3354   -3.9165   -5.1435 C   0  0  0  0  0  0  0  0  0  0  0  0
    2.9161   -4.5029   -5.3004 C   0  0  0  0  0  0  0  0  0  0  0  0
    1.9669   -3.3469   -5.5376 C   0  0  0  0  0  0  0  0  0  0  0  0
    1.8683   -2.7785   -6.6136 O   0  0  0  0  0  0  0  0  0  0  0  0
    1.1769   -2.9427   -4.5102 N   0  0  0  0  0  0  0  0  0  0  0  0
    0.2700   -1.8789   -4.6922 O   0  0  0  0  0  0  0  0  0  0  0  0
    5.0258   -4.7376   -4.9476 H   0  0  0  0  0  0  0  0  0  0  0  0
    4.3336   -3.2205   -4.3018 H   0  0  0  0  0  0  0  0  0  0  0  0
    4.6170   -3.3982   -6.0625 H   0  0  0  0  0  0  0  0  0  0  0  0
    2.6320   -4.9889   -4.3770 H   0  0  0  0  0  0  0  0  0  0  0  0
    2.8936   -5.1688   -6.1520 H   0  0  0  0  0  0  0  0  0  0  0  0
    1.2068   -3.3965   -3.5829 H   0  0  0  0  0  0  0  0  0  0  0  0
    0.3925   -1.6063   -5.6344 H   0  0  0  0  0  0  0  0  0  0  0  0
  1  2  1  0
  1  7  1  0
  1  8  1  0
  1  9  1  0
  2  3  1  0
  2 10  1  0
  2 11  1  0
  3  4  2  0
  3  5  1  0
  5  6  1  0
  5 12  1  0
  6 13  1  0
M  END
> <intraLJ>
0.089     

> <intraEL>
2.437     

> <intraDihe>
5.911     

> <interLJ>
0.000     

> <interEJ>
0.000     

> <gridLJ>
-4.642    

> <gridEL>
0.000     

> <totalE>
3.796     

> <LGFE>
-4.642  

> <LE>
-0.774  

> <SMILES>
CCC(=O)NO

> <atom.dprop.GFE>
-0.28 -0.34 0 -1.8 -0.94 -1.3 0 0 0 0 0 0 0

> <atom.prop.CLASS>
PRPC PRPC NCLA GENA GEND MEOO NCLA NCLA NCLA NCLA NCLA NCLA NCLA

$$$$
13
     RDKit          3D

 13 12  0  0  0  0  0  0  0  0999 V2000
    6.4191   -6.7977    5.0961 C   0  0  0  0  0  0  0  0  0  0  0  0
    5.9229   -5.5419    4.3480 C   0  0  0  0  0  0  0  0  0  0  0  0
    6.7394   -5.4126    3.0790 C   0  0  0  0  0  0  0  0  0  0  0  0
    7.8693   -4.9506    3.0604 O   0  0  0  0  0  0  0  0  0  0  0  0
    6.1938   -5.8516    1.9160 N   0  0  0  0  0  0  0  0  0  0  0  0
    6.9247   -5.7618    0.7141 O   0  0  0  0  0  0  0  0  0  0  0  0
    5.8549   -6.8886    6.0250 H   0  0  0  0  0  0  0  0  0  0  0  0
    7.4822   -6.6755    5.3147 H   0  0  0  0  0  0  0  0  0  0  0  0
    6.2601   -7.6786    4.4707 H   0  0  0  0  0  0  0  0  0  0  0  0
    6.1102   -4.6704    4.9602 H   0  0  0  0  0  0  0  0  0  0  0  0
    4.8787   -5.6630    4.0943 H   0  0  0  0  0  0  0  0  0  0  0  0
    5.2482   -6.2652    1.8746 H   0  0  0  0  0  0  0  0  0  0  0  0
    7.7880   -5.3587    0.9778 H   0  0  0  0  0  0  0  0  0  0  0  0
  1  2  1  0
  1  7  1  0
  1  8  1  0
  1  9  1  0
  2  3  1  0
  2 10  1  0
  2 11  1  0
  3  4  2  0
  3  5  1  0
  5  6  1  0
  5 12  1  0
  6 13  1  0
M  END
> <intraLJ>
0.052     

> <intraEL>
2.416     

> <intraDihe>
5.922     

> <interLJ>
0.000     

> <interEJ>
0.000     

> <gridLJ>
-4.279    

> <gridEL>
0.000     

> <totalE>
4.111     

> <LGFE>
-4.279  

> <LE>
-0.713  

> <SMILES>
CCC(=O)NO

> <atom.dprop.GFE>
-0.24 -0.47 0 -1.5 -1.2 -0.93 0 0 0 0 0 0 0

> <atom.prop.CLASS>
PRPC PRPC NCLA GENA GEND MEOO NCLA NCLA NCLA NCLA NCLA NCLA NCLA

$$$$
13
     RDKit          3D

 13 12  0  0  0  0  0  0  0  0999 V2000
  -17.5037   -1.6294   25.0711 C   0  0  0  0  0  0  0  0  0  0  0  0
  -18.9952   -2.0021   24.9310 C   0  0  0  0  0  0  0  0  0  0  0  0
  -19.0680   -3.4721   24.5739 C   0  0  0  0  0  0  0  0  0  0  0  0
  -19.1249   -3.8739   23.4224 O   0  0  0  0  0  0  0  0  0  0  0  0
  -19.0472   -4.3804   25.5827 N   0  0  0  0  0  0  0  0  0  0  0  0
  -19.1001   -5.7591   25.2936 O   0  0  0  0  0  0  0  0  0  0  0  0
  -17.4365   -0.5663   25.3045 H   0  0  0  0  0  0  0  0  0  0  0  0
  -17.0025   -1.8366   24.1231 H   0  0  0  0  0  0  0  0  0  0  0  0
  -17.0563   -2.2205   25.8729 H   0  0  0  0  0  0  0  0  0  0  0  0
  -19.4247   -1.4351   24.1163 H   0  0  0  0  0  0  0  0  0  0  0  0
  -19.4983   -1.8344   25.8733 H   0  0  0  0  0  0  0  0  0  0  0  0
  -18.9847   -4.0985   26.5744 H   0  0  0  0  0  0  0  0  0  0  0  0
  -19.1410   -5.8047   24.3070 H   0  0  0  0  0  0  0  0  0  0  0  0
  1  2  1  0
  1  7  1  0
  1  8  1  0
  1  9  1  0
  2  3  1  0
  2 10  1  0
  2 11  1  0
  3  4  2  0
  3  5  1  0
  5  6  1  0
  5 12  1  0
  6 13  1  0
M  END
> <intraLJ>
0.026     

> <intraEL>
2.382     

> <intraDihe>
5.947     

> <interLJ>
0.000     

> <interEJ>
0.000     

> <gridLJ>
-4.198    

> <gridEL>
0.000     

> <totalE>
4.158     

> <LGFE>
-4.198  

> <LE>
-0.700  

> <SMILES>
CCC(=O)NO

> <atom.dprop.GFE>
-0.28 -0.14 0 -1.6 -1 -1.1 0 0 0 0 0 0 0

> <atom.prop.CLASS>
PRPC PRPC NCLA GENA GEND MEOO NCLA NCLA NCLA NCLA NCLA NCLA NCLA

$$$$
13
     RDKit          3D

 13 12  0  0  0  0  0  0  0  0999 V2000
   -7.4978  -11.0473    3.3426 C   0  0  0  0  0  0  0  0  0  0  0  0
   -8.0796   -9.8993    2.4901 C   0  0  0  0  0  0  0  0  0  0  0  0
   -7.0488   -8.7905    2.4510 C   0  0  0  0  0  0  0  0  0  0  0  0
   -7.0372   -7.8659    3.2482 O   0  0  0  0  0  0  0  0  0  0  0  0
   -6.0837   -8.8434    1.4977 N   0  0  0  0  0  0  0  0  0  0  0  0
   -5.0972   -7.8385    1.4339 O   0  0  0  0  0  0  0  0  0  0  0  0
   -8.2413  -11.8431    3.3989 H   0  0  0  0  0  0  0  0  0  0  0  0
   -7.2834  -10.6643    4.3427 H   0  0  0  0  0  0  0  0  0  0  0  0
   -6.5833  -11.4181    2.8752 H   0  0  0  0  0  0  0  0  0  0  0  0
   -8.9683   -9.5172    2.9737 H   0  0  0  0  0  0  0  0  0  0  0  0
   -8.2653  -10.2548    1.4860 H   0  0  0  0  0  0  0  0  0  0  0  0
   -6.0355   -9.6098    0.8069 H   0  0  0  0  0  0  0  0  0  0  0  0
   -5.3178   -7.2262    2.1780 H   0  0  0  0  0  0  0  0  0  0  0  0
  1  2  1  0
  1  7  1  0
  1  8  1  0
  1  9  1  0
  2  3  1  0
  2 10  1  0
  2 11  1  0
  3  4  2  0
  3  5  1  0
  5  6  1  0
  5 12  1  0
  6 13  1  0
M  END
> <intraLJ>
0.026     

> <intraEL>
2.384     

> <intraDihe>
5.948     

> <interLJ>
0.000     

> <interEJ>
0.000     

> <gridLJ>
-4.171    

> <gridEL>
0.000     

> <totalE>
4.187     

> <LGFE>
-4.171  

> <LE>
-0.695  

> <SMILES>
CCC(=O)NO

> <atom.dprop.GFE>
-0.43 -0.35 0 -1.3 -0.92 -1.1 0 0 0 0 0 0 0

> <atom.prop.CLASS>
PRPC PRPC NCLA GENA GEND MEOO NCLA NCLA NCLA NCLA NCLA NCLA NCLA

$$$$
13
     RDKit          3D

 13 12  0  0  0  0  0  0  0  0999 V2000
  -16.2406   -9.2542   -9.3657 C   0  0  0  0  0  0  0  0  0  0  0  0
  -16.0969   -9.1235   -7.8343 C   0  0  0  0  0  0  0  0  0  0  0  0
  -16.2195   -7.6545   -7.4868 C   0  0  0  0  0  0  0  0  0  0  0  0
  -16.4416   -6.7909   -8.3208 O   0  0  0  0  0  0  0  0  0  0  0  0
  -16.0976   -7.2896   -6.1849 N   0  0  0  0  0  0  0  0  0  0  0  0
  -16.2179   -5.9343   -5.8164 O   0  0  0  0  0  0  0  0  0  0  0  0
  -16.1297  -10.3060   -9.6318 H   0  0  0  0  0  0  0  0  0  0  0  0
  -15.4547   -8.6633   -9.8410 H   0  0  0  0  0  0  0  0  0  0  0  0
  -17.2241   -8.8901   -9.6697 H   0  0  0  0  0  0  0  0  0  0  0  0
  -15.1104   -9.4579   -7.5435 H   0  0  0  0  0  0  0  0  0  0  0  0
  -16.8899   -9.6762   -7.3496 H   0  0  0  0  0  0  0  0  0  0  0  0
  -15.9246   -7.9788   -5.4352 H   0  0  0  0  0  0  0  0  0  0  0  0
  -16.3919   -5.4603   -6.6662 H   0  0  0  0  0  0  0  0  0  0  0  0
  1  2  1  0
  1  7  1  0
  1  8  1  0
  1  9  1  0
  2  3  1  0
  2 10  1  0
  2 11  1  0
  3  4  2  0
  3  5  1  0
  5  6  1  0
  5 12  1  0
  6 13  1  0
M  END
> <intraLJ>
0.450     

> <intraEL>
2.510     

> <intraDihe>
5.851     

> <interLJ>
0.000     

> <interEJ>
0.000     

> <gridLJ>
-4.061    

> <gridEL>
0.000     

> <totalE>
4.750     

> <LGFE>
-4.061  

> <LE>
-0.677  

> <SMILES>
CCC(=O)NO

> <atom.dprop.GFE>
-0.22 -0.22 0 -1.2 -1.4 -1 0 0 0 0 0 0 0

> <atom.prop.CLASS>
PRPC PRPC NCLA GENA GEND MEOO NCLA NCLA NCLA NCLA NCLA NCLA NCLA

$$$$
13
     RDKit          3D

 13 12  0  0  0  0  0  0  0  0999 V2000
  -17.4396    1.0984   21.5768 C   0  0  0  0  0  0  0  0  0  0  0  0
  -18.3058    0.1343   22.4153 C   0  0  0  0  0  0  0  0  0  0  0  0
  -19.3772    0.9582   23.0986 C   0  0  0  0  0  0  0  0  0  0  0  0
  -19.3120    1.2915   24.2713 O   0  0  0  0  0  0  0  0  0  0  0  0
  -20.4457    1.3599   22.3636 N   0  0  0  0  0  0  0  0  0  0  0  0
  -21.4592    2.1392   22.9573 O   0  0  0  0  0  0  0  0  0  0  0  0
  -16.6484    0.5202   21.0984 H   0  0  0  0  0  0  0  0  0  0  0  0
  -17.0052    1.8460   22.2442 H   0  0  0  0  0  0  0  0  0  0  0  0
  -18.0628    1.5818   20.8216 H   0  0  0  0  0  0  0  0  0  0  0  0
  -17.6893   -0.3185   23.1798 H   0  0  0  0  0  0  0  0  0  0  0  0
  -18.7706   -0.5921   21.7629 H   0  0  0  0  0  0  0  0  0  0  0  0
  -20.5459    1.1204   21.3639 H   0  0  0  0  0  0  0  0  0  0  0  0
  -21.1632    2.2612   23.8925 H   0  0  0  0  0  0  0  0  0  0  0  0
  1  2  1  0
  1  7  1  0
  1  8  1  0
  1  9  1  0
  2  3  1  0
  2 10  1  0
  2 11  1  0
  3  4  2  0
  3  5  1  0
  5  6  1  0
  5 12  1  0
  6 13  1  0
M  END
> <intraLJ>
0.053     

> <intraEL>
2.368     

> <intraDihe>
5.919     

> <interLJ>
0.000     

> <interEJ>
0.000     

> <gridLJ>
-4.022    

> <gridEL>
0.000     

> <totalE>
4.318     

> <LGFE>
-4.022  

> <LE>
-0.670  

> <SMILES>
CCC(=O)NO

> <atom.dprop.GFE>
-0.54 -0.5 0 -0.65 -0.91 -1.4 0 0 0 0 0 0 0

> <atom.prop.CLASS>
PRPC PRPC NCLA GENA GEND MEOO NCLA NCLA NCLA NCLA NCLA NCLA NCLA

$$$$
13
     RDKit          3D

 13 12  0  0  0  0  0  0  0  0999 V2000
  -18.0264    5.4032   -4.5234 C   0  0  0  0  0  0  0  0  0  0  0  0
  -18.4710    6.4243   -3.4545 C   0  0  0  0  0  0  0  0  0  0  0  0
  -17.2438    6.8176   -2.6588 C   0  0  0  0  0  0  0  0  0  0  0  0
  -16.9993    6.3692   -1.5499 O   0  0  0  0  0  0  0  0  0  0  0  0
  -16.3686    7.6922   -3.2175 N   0  0  0  0  0  0  0  0  0  0  0  0
  -15.2071    8.0749   -2.5165 O   0  0  0  0  0  0  0  0  0  0  0  0
  -18.9063    5.0931   -5.0882 H   0  0  0  0  0  0  0  0  0  0  0  0
  -17.5830    4.5418   -4.0191 H   0  0  0  0  0  0  0  0  0  0  0  0
  -17.2965    5.8694   -5.1885 H   0  0  0  0  0  0  0  0  0  0  0  0
  -19.1709    5.9476   -2.7818 H   0  0  0  0  0  0  0  0  0  0  0  0
  -18.8813    7.2988   -3.9404 H   0  0  0  0  0  0  0  0  0  0  0  0
  -16.5165    8.0917   -4.1584 H   0  0  0  0  0  0  0  0  0  0  0  0
  -15.2552    7.5757   -1.6646 H   0  0  0  0  0  0  0  0  0  0  0  0
  1  2  1  0
  1  7  1  0
  1  8  1  0
  1  9  1  0
  2  3  1  0
  2 10  1  0
  2 11  1  0
  3  4  2  0
  3  5  1  0
  5  6  1  0
  5 12  1  0
  6 13  1  0
M  END
> <intraLJ>
0.056     

> <intraEL>
2.367     

> <intraDihe>
5.916     

> <interLJ>
0.000     

> <interEJ>
0.000     

> <gridLJ>
-3.999    

> <gridEL>
0.000     

> <totalE>
4.341     

> <LGFE>
-3.999  

> <LE>
-0.666  

> <SMILES>
CCC(=O)NO

> <atom.dprop.GFE>
-0.3 -0.42 0 -1.9 -1.1 -0.27 0 0 0 0 0 0 0

> <atom.prop.CLASS>
PRPC PRPC NCLA GENA GEND MEOO NCLA NCLA NCLA NCLA NCLA NCLA NCLA

$$$$
13
     RDKit          3D

 13 12  0  0  0  0  0  0  0  0999 V2000
  -28.6022   -6.3211    4.2821 C   0  0  0  0  0  0  0  0  0  0  0  0
  -28.0253   -5.0821    3.5643 C   0  0  0  0  0  0  0  0  0  0  0  0
  -26.5436   -5.0234    3.8722 C   0  0  0  0  0  0  0  0  0  0  0  0
  -26.0659   -4.2580    4.6948 O   0  0  0  0  0  0  0  0  0  0  0  0
  -25.7165   -5.8774    3.2167 N   0  0  0  0  0  0  0  0  0  0  0  0
  -24.3323   -5.8648    3.4829 O   0  0  0  0  0  0  0  0  0  0  0  0
  -29.6746   -6.3611    4.0881 H   0  0  0  0  0  0  0  0  0  0  0  0
  -28.4196   -6.2189    5.3541 H   0  0  0  0  0  0  0  0  0  0  0  0
  -28.1159   -7.2207    3.8994 H   0  0  0  0  0  0  0  0  0  0  0  0
  -28.4896   -4.1930    3.9687 H   0  0  0  0  0  0  0  0  0  0  0  0
  -28.1682   -5.1849    2.4975 H   0  0  0  0  0  0  0  0  0  0  0  0
  -26.0669   -6.5566    2.5219 H   0  0  0  0  0  0  0  0  0  0  0  0
  -24.2183   -5.1662    4.1729 H   0  0  0  0  0  0  0  0  0  0  0  0
  1  2  1  0
  1  7  1  0
  1  8  1  0
  1  9  1  0
  2  3  1  0
  2 10  1  0
  2 11  1  0
  3  4  2  0
  3  5  1  0
  5  6  1  0
  5 12  1  0
  6 13  1  0
M  END
> <intraLJ>
0.060     

> <intraEL>
2.367     

> <intraDihe>
5.913     

> <interLJ>
0.000     

> <interEJ>
0.000     

> <gridLJ>
-3.928    

> <gridEL>
0.000     

> <totalE>
4.412     

> <LGFE>
-3.928  

> <LE>
-0.655  

> <SMILES>
CCC(=O)NO

> <atom.dprop.GFE>
-0.3 -0.37 0 -1.4 -0.92 -0.96 0 0 0 0 0 0 0

> <atom.prop.CLASS>
PRPC PRPC NCLA GENA GEND MEOO NCLA NCLA NCLA NCLA NCLA NCLA NCLA

$$$$
13
     RDKit          3D

 13 12  0  0  0  0  0  0  0  0999 V2000
   19.6911    6.3574   -7.4558 C   0  0  0  0  0  0  0  0  0  0  0  0
   20.8780    6.9938   -6.7012 C   0  0  0  0  0  0  0  0  0  0  0  0
   22.0545    7.0393   -7.6538 C   0  0  0  0  0  0  0  0  0  0  0  0
   22.9811    6.2459   -7.6033 O   0  0  0  0  0  0  0  0  0  0  0  0
   22.0636    7.9941   -8.6189 N   0  0  0  0  0  0  0  0  0  0  0  0
   23.1334    8.0636   -9.5342 O   0  0  0  0  0  0  0  0  0  0  0  0
   18.8435    6.2964   -6.7723 H   0  0  0  0  0  0  0  0  0  0  0  0
   19.9819    5.3562   -7.7811 H   0  0  0  0  0  0  0  0  0  0  0  0
   19.4362    6.9765   -8.3184 H   0  0  0  0  0  0  0  0  0  0  0  0
   21.1443    6.3607   -5.8658 H   0  0  0  0  0  0  0  0  0  0  0  0
   20.6169    7.9996   -6.4022 H   0  0  0  0  0  0  0  0  0  0  0  0
   21.2994    8.6817   -8.7184 H   0  0  0  0  0  0  0  0  0  0  0  0
   23.7323    7.3217   -9.2734 H   0  0  0  0  0  0  0  0  0  0  0  0
  1  2  1  0
  1  7  1  0
  1  8  1  0
  1  9  1  0
  2  3  1  0
  2 10  1  0
  2 11  1  0
  3  4  2  0
  3  5  1  0
  5  6  1  0
  5 12  1  0
  6 13  1  0
M  END
> <intraLJ>
0.060     

> <intraEL>
2.367     

> <intraDihe>
5.914     

> <interLJ>
0.000     

> <interEJ>
0.000     

> <gridLJ>
-3.931    

> <gridEL>
0.000     

> <totalE>
4.410     

> <LGFE>
-3.931  

> <LE>
-0.655  

> <SMILES>
CCC(=O)NO

> <atom.dprop.GFE>
-0.46 -0.37 0 -1.2 -1.3 -0.6 0 0 0 0 0 0 0

> <atom.prop.CLASS>
PRPC PRPC NCLA GENA GEND MEOO NCLA NCLA NCLA NCLA NCLA NCLA NCLA

$$$$
13
     RDKit          3D

 13 12  0  0  0  0  0  0  0  0999 V2000
   16.3387   18.1007  -29.8496 C   0  0  0  0  0  0  0  0  0  0  0  0
   16.0922   16.7140  -30.4815 C   0  0  0  0  0  0  0  0  0  0  0  0
   15.2245   15.9229  -29.5249 C   0  0  0  0  0  0  0  0  0  0  0  0
   15.6812   15.1446  -28.7027 O   0  0  0  0  0  0  0  0  0  0  0  0
   13.8804   16.1074  -29.5738 N   0  0  0  0  0  0  0  0  0  0  0  0
   13.0374   15.4007  -28.6924 O   0  0  0  0  0  0  0  0  0  0  0  0
   16.9833   18.6723  -30.5182 H   0  0  0  0  0  0  0  0  0  0  0  0
   16.8308   17.9611  -28.8846 H   0  0  0  0  0  0  0  0  0  0  0  0
   15.3838   18.6134  -29.7169 H   0  0  0  0  0  0  0  0  0  0  0  0
   17.0383   16.2000  -30.5828 H   0  0  0  0  0  0  0  0  0  0  0  0
   15.5742   16.8342  -31.4230 H   0  0  0  0  0  0  0  0  0  0  0  0
   13.4400   16.7641  -30.2384 H   0  0  0  0  0  0  0  0  0  0  0  0
   13.6525   14.8524  -28.1463 H   0  0  0  0  0  0  0  0  0  0  0  0
  1  2  1  0
  1  7  1  0
  1  8  1  0
  1  9  1  0
  2  3  1  0
  2 10  1  0
  2 11  1  0
  3  4  2  0
  3  5  1  0
  5  6  1  0
  5 12  1  0
  6 13  1  0
M  END
> <intraLJ>
0.029     

> <intraEL>
2.378     

> <intraDihe>
5.943     

> <interLJ>
0.000     

> <interEJ>
0.000     

> <gridLJ>
-3.887    

> <gridEL>
0.000     

> <totalE>
4.463     

> <LGFE>
-3.887  

> <LE>
-0.648  

> <SMILES>
CCC(=O)NO

> <atom.dprop.GFE>
-0.092 -0.17 0 -1.1 -1.7 -0.84 0 0 0 0 0 0 0

> <atom.prop.CLASS>
PRPC PRPC NCLA GENA GEND MEOO NCLA NCLA NCLA NCLA NCLA NCLA NCLA

$$$$
13
     RDKit          3D

 13 12  0  0  0  0  0  0  0  0999 V2000
   -2.1261    4.4934   11.0998 C   0  0  0  0  0  0  0  0  0  0  0  0
   -2.9233    4.1321    9.8282 C   0  0  0  0  0  0  0  0  0  0  0  0
   -2.0217    3.2948    8.9452 C   0  0  0  0  0  0  0  0  0  0  0  0
   -1.3644    3.7657    8.0304 O   0  0  0  0  0  0  0  0  0  0  0  0
   -1.9273    1.9647    9.2004 N   0  0  0  0  0  0  0  0  0  0  0  0
   -1.0895    1.1512    8.4109 O   0  0  0  0  0  0  0  0  0  0  0  0
   -2.7567    5.1175   11.7338 H   0  0  0  0  0  0  0  0  0  0  0  0
   -1.2306    5.0445   10.8046 H   0  0  0  0  0  0  0  0  0  0  0  0
   -1.8503    3.5777   11.6269 H   0  0  0  0  0  0  0  0  0  0  0  0
   -3.1676    5.0411    9.2957 H   0  0  0  0  0  0  0  0  0  0  0  0
   -3.7963    3.5558   10.1020 H   0  0  0  0  0  0  0  0  0  0  0  0
   -2.4483    1.5149    9.9705 H   0  0  0  0  0  0  0  0  0  0  0  0
   -0.6844    1.7723    7.7571 H   0  0  0  0  0  0  0  0  0  0  0  0
  1  2  1  0
  1  7  1  0
  1  8  1  0
  1  9  1  0
  2  3  1  0
  2 10  1  0
  2 11  1  0
  3  4  2  0
  3  5  1  0
  5  6  1  0
  5 12  1  0
  6 13  1  0
M  END
> <intraLJ>
0.031     

> <intraEL>
2.376     

> <intraDihe>
5.940     

> <interLJ>
0.000     

> <interEJ>
0.000     

> <gridLJ>
-3.888    

> <gridEL>
0.000     

> <totalE>
4.460     

> <LGFE>
-3.888  

> <LE>
-0.648  

> <SMILES>
CCC(=O)NO

> <atom.dprop.GFE>
-0.36 -0.46 0 -1.1 -1 -0.95 0 0 0 0 0 0 0

> <atom.prop.CLASS>
PRPC PRPC NCLA GENA GEND MEOO NCLA NCLA NCLA NCLA NCLA NCLA NCLA

$$$$
13
     RDKit          3D

 13 12  0  0  0  0  0  0  0  0999 V2000
   -7.4902    9.7072  -11.4674 C   0  0  0  0  0  0  0  0  0  0  0  0
   -7.4365   10.7999  -10.3783 C   0  0  0  0  0  0  0  0  0  0  0  0
   -6.2415   10.5073   -9.4950 C   0  0  0  0  0  0  0  0  0  0  0  0
   -5.1859   11.1143   -9.5831 O   0  0  0  0  0  0  0  0  0  0  0  0
   -6.3622    9.5402   -8.5499 N   0  0  0  0  0  0  0  0  0  0  0  0
   -5.2785    9.2451   -7.6982 O   0  0  0  0  0  0  0  0  0  0  0  0
   -8.3616    9.8927  -12.0963 H   0  0  0  0  0  0  0  0  0  0  0  0
   -7.5811    8.7340  -10.9801 H   0  0  0  0  0  0  0  0  0  0  0  0
   -6.5778    9.7470  -12.0660 H   0  0  0  0  0  0  0  0  0  0  0  0
   -8.3290   10.7357   -9.7709 H   0  0  0  0  0  0  0  0  0  0  0  0
   -7.3120   11.7674  -10.8447 H   0  0  0  0  0  0  0  0  0  0  0  0
   -7.2361    9.0052   -8.4201 H   0  0  0  0  0  0  0  0  0  0  0  0
   -4.5649    9.8690   -7.9787 H   0  0  0  0  0  0  0  0  0  0  0  0
  1  2  1  0
  1  7  1  0
  1  8  1  0
  1  9  1  0
  2  3  1  0
  2 10  1  0
  2 11  1  0
  3  4  2  0
  3  5  1  0
  5  6  1  0
  5 12  1  0
  6 13  1  0
M  END
> <intraLJ>
0.074     

> <intraEL>
2.380     

> <intraDihe>
5.915     

> <interLJ>
0.000     

> <interEJ>
0.000     

> <gridLJ>
-3.742    

> <gridEL>
0.000     

> <totalE>
4.627     

> <LGFE>
-3.742  

> <LE>
-0.624  

> <SMILES>
CCC(=O)NO

> <atom.dprop.GFE>
-0.37 -0.43 0 -0.86 -1.1 -0.94 0 0 0 0 0 0 0

> <atom.prop.CLASS>
PRPC PRPC NCLA GENA GEND MEOO NCLA NCLA NCLA NCLA NCLA NCLA NCLA

$$$$
13
     RDKit          3D

 13 12  0  0  0  0  0  0  0  0999 V2000
   -2.1033   15.7542    1.3482 C   0  0  0  0  0  0  0  0  0  0  0  0
   -1.2855   15.7107    0.0397 C   0  0  0  0  0  0  0  0  0  0  0  0
   -2.2029   15.2114   -1.0570 C   0  0  0  0  0  0  0  0  0  0  0  0
   -3.0053   15.9309   -1.6307 O   0  0  0  0  0  0  0  0  0  0  0  0
   -2.1097   13.9094   -1.4299 N   0  0  0  0  0  0  0  0  0  0  0  0
   -2.9360   13.4069   -2.4556 O   0  0  0  0  0  0  0  0  0  0  0  0
   -1.4467   16.0893    2.1518 H   0  0  0  0  0  0  0  0  0  0  0  0
   -2.4726   14.7487    1.5617 H   0  0  0  0  0  0  0  0  0  0  0  0
   -2.9390   16.4471    1.2304 H   0  0  0  0  0  0  0  0  0  0  0  0
   -0.4775   15.0009    0.1530 H   0  0  0  0  0  0  0  0  0  0  0  0
   -0.9415   16.7066   -0.2033 H   0  0  0  0  0  0  0  0  0  0  0  0
   -1.4387   13.2588   -0.9902 H   0  0  0  0  0  0  0  0  0  0  0  0
   -3.4783   14.1829   -2.7403 H   0  0  0  0  0  0  0  0  0  0  0  0
  1  2  1  0
  1  7  1  0
  1  8  1  0
  1  9  1  0
  2  3  1  0
  2 10  1  0
  2 11  1  0
  3  4  2  0
  3  5  1  0
  5  6  1  0
  5 12  1  0
  6 13  1  0
M  END
> <intraLJ>
0.075     

> <intraEL>
2.428     

> <intraDihe>
5.928     

> <interLJ>
0.000     

> <interEJ>
0.000     

> <gridLJ>
-3.704    

> <gridEL>
0.000     

> <totalE>
4.726     

> <LGFE>
-3.704  

> <LE>
-0.617  

> <SMILES>
CCC(=O)NO

> <atom.dprop.GFE>
-0.46 -0.58 0 -1.1 -0.94 -0.62 0 0 0 0 0 0 0

> <atom.prop.CLASS>
PRPC PRPC NCLA GENA GEND MEOO NCLA NCLA NCLA NCLA NCLA NCLA NCLA

$$$$
13
     RDKit          3D

 13 12  0  0  0  0  0  0  0  0999 V2000
    9.7234   13.8904  -39.7850 C   0  0  0  0  0  0  0  0  0  0  0  0
    9.3797   14.7491  -38.5491 C   0  0  0  0  0  0  0  0  0  0  0  0
    9.6846   13.9218  -37.3178 C   0  0  0  0  0  0  0  0  0  0  0  0
   10.6761   14.0982  -36.6277 O   0  0  0  0  0  0  0  0  0  0  0  0
    8.8012   12.9559  -36.9574 N   0  0  0  0  0  0  0  0  0  0  0  0
    9.0401   12.1716  -35.8108 O   0  0  0  0  0  0  0  0  0  0  0  0
    9.4851   14.4666  -40.6797 H   0  0  0  0  0  0  0  0  0  0  0  0
    9.1209   12.9800  -39.7549 H   0  0  0  0  0  0  0  0  0  0  0  0
   10.7865   13.6414  -39.7689 H   0  0  0  0  0  0  0  0  0  0  0  0
    8.3204   14.9672  -38.5555 H   0  0  0  0  0  0  0  0  0  0  0  0
    9.9938   15.6391  -38.5468 H   0  0  0  0  0  0  0  0  0  0  0  0
    7.9384   12.7725  -37.4948 H   0  0  0  0  0  0  0  0  0  0  0  0
    9.8927   12.5158  -35.4476 H   0  0  0  0  0  0  0  0  0  0  0  0
  1  2  1  0
  1  7  1  0
  1  8  1  0
  1  9  1  0
  2  3  1  0
  2 10  1  0
  2 11  1  0
  3  4  2  0
  3  5  1  0
  5  6  1  0
  5 12  1  0
  6 13  1  0
M  END
> <intraLJ>
0.084     

> <intraEL>
2.378     

> <intraDihe>
5.907     

> <interLJ>
0.000     

> <interEJ>
0.000     

> <gridLJ>
-3.572    

> <gridEL>
0.000     

> <totalE>
4.797     

> <LGFE>
-3.572  

> <LE>
-0.595  

> <SMILES>
CCC(=O)NO

> <atom.dprop.GFE>
-0.1 0.034 0 -1.3 -0.75 -1.5 0 0 0 0 0 0 0

> <atom.prop.CLASS>
PRPC PRPC NCLA GENA GEND MEOO NCLA NCLA NCLA NCLA NCLA NCLA NCLA

$$$$
13
     RDKit          3D

 13 12  0  0  0  0  0  0  0  0999 V2000
  -16.0064    4.3302    6.2604 C   0  0  0  0  0  0  0  0  0  0  0  0
  -16.3299    5.5600    7.1356 C   0  0  0  0  0  0  0  0  0  0  0  0
  -17.8269    5.5776    7.3648 C   0  0  0  0  0  0  0  0  0  0  0  0
  -18.3430    5.2164    8.4105 O   0  0  0  0  0  0  0  0  0  0  0  0
  -18.6245    6.0370    6.3669 N   0  0  0  0  0  0  0  0  0  0  0  0
  -20.0223    6.0825    6.5435 O   0  0  0  0  0  0  0  0  0  0  0  0
  -14.9331    4.3196    6.0675 H   0  0  0  0  0  0  0  0  0  0  0  0
  -16.5546    4.4182    5.3198 H   0  0  0  0  0  0  0  0  0  0  0  0
  -16.3037    3.4216    6.7881 H   0  0  0  0  0  0  0  0  0  0  0  0
  -16.0606    6.4572    6.5953 H   0  0  0  0  0  0  0  0  0  0  0  0
  -15.8206    5.4702    8.0852 H   0  0  0  0  0  0  0  0  0  0  0  0
  -18.2420    6.3695    5.4669 H   0  0  0  0  0  0  0  0  0  0  0  0
  -20.1683    5.7400    7.4593 H   0  0  0  0  0  0  0  0  0  0  0  0
  1  2  1  0
  1  7  1  0
  1  8  1  0
  1  9  1  0
  2  3  1  0
  2 10  1  0
  2 11  1  0
  3  4  2  0
  3  5  1  0
  5  6  1  0
  5 12  1  0
  6 13  1  0
M  END
> <intraLJ>
0.077     

> <intraEL>
2.379     

> <intraDihe>
5.913     

> <interLJ>
0.000     

> <interEJ>
0.000     

> <gridLJ>
-3.527    

> <gridEL>
0.000     

> <totalE>
4.841     

> <LGFE>
-3.527  

> <LE>
-0.588  

> <SMILES>
CCC(=O)NO

> <atom.dprop.GFE>
-0.7 -0.58 0 -0.85 -0.37 -1 0 0 0 0 0 0 0

> <atom.prop.CLASS>
PRPC PRPC NCLA GENA GEND MEOO NCLA NCLA NCLA NCLA NCLA NCLA NCLA

$$$$
13
     RDKit          3D

 13 12  0  0  0  0  0  0  0  0999 V2000
  -40.6165    5.1459   21.3223 C   0  0  0  0  0  0  0  0  0  0  0  0
  -40.9802    6.6280   21.0897 C   0  0  0  0  0  0  0  0  0  0  0  0
  -40.2038    7.4529   22.0949 C   0  0  0  0  0  0  0  0  0  0  0  0
  -39.2067    8.0929   21.8004 O   0  0  0  0  0  0  0  0  0  0  0  0
  -40.6536    7.4964   23.3751 N   0  0  0  0  0  0  0  0  0  0  0  0
  -39.9681    8.2625   24.3395 O   0  0  0  0  0  0  0  0  0  0  0  0
  -41.1883    4.5384   20.6199 H   0  0  0  0  0  0  0  0  0  0  0  0
  -40.8803    4.8794   22.3481 H   0  0  0  0  0  0  0  0  0  0  0  0
  -39.5462    5.0053   21.1580 H   0  0  0  0  0  0  0  0  0  0  0  0
  -42.0353    6.7660   21.2828 H   0  0  0  0  0  0  0  0  0  0  0  0
  -40.6931    6.9163   20.0879 H   0  0  0  0  0  0  0  0  0  0  0  0
  -41.4999    6.9873   23.6775 H   0  0  0  0  0  0  0  0  0  0  0  0
  -39.2147    8.6685   23.8447 H   0  0  0  0  0  0  0  0  0  0  0  0
  1  2  1  0
  1  7  1  0
  1  8  1  0
  1  9  1  0
  2  3  1  0
  2 10  1  0
  2 11  1  0
  3  4  2  0
  3  5  1  0
  5  6  1  0
  5 12  1  0
  6 13  1  0
M  END
> <intraLJ>
0.081     

> <intraEL>
2.378     

> <intraDihe>
5.909     

> <interLJ>
0.000     

> <interEJ>
0.000     

> <gridLJ>
-3.489    

> <gridEL>
0.000     

> <totalE>
4.879     

> <LGFE>
-3.489  

> <LE>
-0.581  

> <SMILES>
CCC(=O)NO

> <atom.dprop.GFE>
-0.51 -0.5 0 -0.7 -0.63 -1.1 0 0 0 0 0 0 0

> <atom.prop.CLASS>
PRPC PRPC NCLA GENA GEND MEOO NCLA NCLA NCLA NCLA NCLA NCLA NCLA

$$$$
13
     RDKit          3D

 13 12  0  0  0  0  0  0  0  0999 V2000
  -24.5525  -17.4333    7.7541 C   0  0  0  0  0  0  0  0  0  0  0  0
  -25.8797  -16.8753    8.3110 C   0  0  0  0  0  0  0  0  0  0  0  0
  -25.7701  -16.8559    9.8214 C   0  0  0  0  0  0  0  0  0  0  0  0
  -26.2542  -17.7212   10.5337 O   0  0  0  0  0  0  0  0  0  0  0  0
  -25.0832  -15.8395   10.4030 N   0  0  0  0  0  0  0  0  0  0  0  0
  -24.9461  -15.7903   11.8051 O   0  0  0  0  0  0  0  0  0  0  0  0
  -24.6277  -17.4754    6.6670 H   0  0  0  0  0  0  0  0  0  0  0  0
  -24.4000  -18.4367    8.1576 H   0  0  0  0  0  0  0  0  0  0  0  0
  -23.7311  -16.7775    8.0502 H   0  0  0  0  0  0  0  0  0  0  0  0
  -26.6845  -17.5448    8.0396 H   0  0  0  0  0  0  0  0  0  0  0  0
  -26.0278  -15.8679    7.9471 H   0  0  0  0  0  0  0  0  0  0  0  0
  -24.6400  -15.0886    9.8494 H   0  0  0  0  0  0  0  0  0  0  0  0
  -25.4224  -16.5935   12.1296 H   0  0  0  0  0  0  0  0  0  0  0  0
  1  2  1  0
  1  7  1  0
  1  8  1  0
  1  9  1  0
  2  3  1  0
  2 10  1  0
  2 11  1  0
  3  4  2  0
  3  5  1  0
  5  6  1  0
  5 12  1  0
  6 13  1  0
M  END
> <intraLJ>
0.043     

> <intraEL>
2.371     

> <intraDihe>
5.928     

> <interLJ>
0.000     

> <interEJ>
0.000     

> <gridLJ>
-3.495    

> <gridEL>
0.000     

> <totalE>
4.847     

> <LGFE>
-3.495  

> <LE>
-0.582  

> <SMILES>
CCC(=O)NO

> <atom.dprop.GFE>
-0.36 -0.39 0 -0.88 -1.1 -0.71 0 0 0 0 0 0 0

> <atom.prop.CLASS>
PRPC PRPC NCLA GENA GEND MEOO NCLA NCLA NCLA NCLA NCLA NCLA NCLA

$$$$
13
     RDKit          3D

 13 12  0  0  0  0  0  0  0  0999 V2000
   17.3096    6.9528   -6.5708 C   0  0  0  0  0  0  0  0  0  0  0  0
   18.2419    5.7301   -6.4341 C   0  0  0  0  0  0  0  0  0  0  0  0
   19.6510    6.1923   -6.7411 C   0  0  0  0  0  0  0  0  0  0  0  0
   20.4862    6.3982   -5.8747 O   0  0  0  0  0  0  0  0  0  0  0  0
   20.0025    6.3632   -8.0412 N   0  0  0  0  0  0  0  0  0  0  0  0
   21.3080    6.7798   -8.3716 O   0  0  0  0  0  0  0  0  0  0  0  0
   16.2871    6.6277   -6.3758 H   0  0  0  0  0  0  0  0  0  0  0  0
   17.3911    7.3408   -7.5885 H   0  0  0  0  0  0  0  0  0  0  0  0
   17.6063    7.7171   -5.8496 H   0  0  0  0  0  0  0  0  0  0  0  0
   17.9615    4.9895   -7.1707 H   0  0  0  0  0  0  0  0  0  0  0  0
   18.1979    5.3552   -5.4208 H   0  0  0  0  0  0  0  0  0  0  0  0
   19.3422    6.1893   -8.8161 H   0  0  0  0  0  0  0  0  0  0  0  0
   21.7672    6.8720   -7.5010 H   0  0  0  0  0  0  0  0  0  0  0  0
  1  2  1  0
  1  7  1  0
  1  8  1  0
  1  9  1  0
  2  3  1  0
  2 10  1  0
  2 11  1  0
  3  4  2  0
  3  5  1  0
  5  6  1  0
  5 12  1  0
  6 13  1  0
M  END
> <intraLJ>
0.079     

> <intraEL>
2.379     

> <intraDihe>
5.911     

> <interLJ>
0.000     

> <interEJ>
0.000     

> <gridLJ>
-3.422    

> <gridEL>
0.000     

> <totalE>
4.947     

> <LGFE>
-3.422  

> <LE>
-0.570  

> <SMILES>
CCC(=O)NO

> <atom.dprop.GFE>
-0.56 -0.44 0 -0.83 -0.99 -0.6 0 0 0 0 0 0 0

> <atom.prop.CLASS>
PRPC PRPC NCLA GENA GEND MEOO NCLA NCLA NCLA NCLA NCLA NCLA NCLA

$$$$
13
     RDKit          3D

 13 12  0  0  0  0  0  0  0  0999 V2000
   17.5314   -2.2662  -32.7068 C   0  0  0  0  0  0  0  0  0  0  0  0
   16.9372   -2.7866  -34.0330 C   0  0  0  0  0  0  0  0  0  0  0  0
   17.6295   -2.0540  -35.1634 C   0  0  0  0  0  0  0  0  0  0  0  0
   17.1236   -1.1122  -35.7528 O   0  0  0  0  0  0  0  0  0  0  0  0
   18.8775   -2.4530  -35.5188 N   0  0  0  0  0  0  0  0  0  0  0  0
   19.5627   -1.7900  -36.5570 O   0  0  0  0  0  0  0  0  0  0  0  0
   17.0234   -2.7688  -31.8830 H   0  0  0  0  0  0  0  0  0  0  0  0
   17.3624   -1.1887  -32.6485 H   0  0  0  0  0  0  0  0  0  0  0  0
   18.6011   -2.4835  -32.6789 H   0  0  0  0  0  0  0  0  0  0  0  0
   15.8843   -2.5420  -34.0671 H   0  0  0  0  0  0  0  0  0  0  0  0
   17.1271   -3.8475  -34.1210 H   0  0  0  0  0  0  0  0  0  0  0  0
   19.3604   -3.2336  -35.0451 H   0  0  0  0  0  0  0  0  0  0  0  0
   18.9389   -1.0833  -36.8548 H   0  0  0  0  0  0  0  0  0  0  0  0
  1  2  1  0
  1  7  1  0
  1  8  1  0
  1  9  1  0
  2  3  1  0
  2 10  1  0
  2 11  1  0
  3  4  2  0
  3  5  1  0
  5  6  1  0
  5 12  1  0
  6 13  1  0
M  END
> <intraLJ>
0.050     

> <intraEL>
2.369     

> <intraDihe>
5.921     

> <interLJ>
0.000     

> <interEJ>
0.000     

> <gridLJ>
-3.441    

> <gridEL>
0.000     

> <totalE>
4.899     

> <LGFE>
-3.441  

> <LE>
-0.573  

> <SMILES>
CCC(=O)NO

> <atom.dprop.GFE>
-0.42 -0.49 0 -1 -0.59 -0.91 0 0 0 0 0 0 0

> <atom.prop.CLASS>
PRPC PRPC NCLA GENA GEND MEOO NCLA NCLA NCLA NCLA NCLA NCLA NCLA

$$$$
13
     RDKit          3D

 13 12  0  0  0  0  0  0  0  0999 V2000
  -22.0130   -8.4386   26.4940 C   0  0  0  0  0  0  0  0  0  0  0  0
  -20.4799   -8.3221   26.6312 C   0  0  0  0  0  0  0  0  0  0  0  0
  -20.1050   -6.8787   26.3669 C   0  0  0  0  0  0  0  0  0  0  0  0
  -19.8181   -6.0934   27.2566 O   0  0  0  0  0  0  0  0  0  0  0  0
  -20.0672   -6.4498   25.0794 N   0  0  0  0  0  0  0  0  0  0  0  0
  -19.7105   -5.1174   24.7884 O   0  0  0  0  0  0  0  0  0  0  0  0
  -22.2937   -9.4795   26.6581 H   0  0  0  0  0  0  0  0  0  0  0  0
  -22.2969   -8.1292   25.4857 H   0  0  0  0  0  0  0  0  0  0  0  0
  -22.4930   -7.7971   27.2359 H   0  0  0  0  0  0  0  0  0  0  0  0
  -20.0110   -8.9365   25.8747 H   0  0  0  0  0  0  0  0  0  0  0  0
  -20.1866   -8.5927   27.6362 H   0  0  0  0  0  0  0  0  0  0  0  0
  -20.2854   -7.0740   24.2859 H   0  0  0  0  0  0  0  0  0  0  0  0
  -19.5322   -4.7095   25.6711 H   0  0  0  0  0  0  0  0  0  0  0  0
  1  2  1  0
  1  7  1  0
  1  8  1  0
  1  9  1  0
  2  3  1  0
  2 10  1  0
  2 11  1  0
  3  4  2  0
  3  5  1  0
  5  6  1  0
  5 12  1  0
  6 13  1  0
M  END
> <intraLJ>
0.081     

> <intraEL>
2.378     

> <intraDihe>
5.909     

> <interLJ>
0.000     

> <interEJ>
0.000     

> <gridLJ>
-3.417    

> <gridEL>
0.000     

> <totalE>
4.951     

> <LGFE>
-3.417  

> <LE>
-0.570  

> <SMILES>
CCC(=O)NO

> <atom.dprop.GFE>
-0.42 -0.42 0 -0.75 -0.7 -1.1 0 0 0 0 0 0 0

> <atom.prop.CLASS>
PRPC PRPC NCLA GENA GEND MEOO NCLA NCLA NCLA NCLA NCLA NCLA NCLA

$$$$
13
     RDKit          3D

 13 12  0  0  0  0  0  0  0  0999 V2000
   24.2782   -1.7851  -29.9782 C   0  0  0  0  0  0  0  0  0  0  0  0
   23.7661   -1.1545  -28.6656 C   0  0  0  0  0  0  0  0  0  0  0  0
   22.6321   -2.0185  -28.1545 C   0  0  0  0  0  0  0  0  0  0  0  0
   21.4753   -1.8803  -28.5193 O   0  0  0  0  0  0  0  0  0  0  0  0
   22.9242   -3.0036  -27.2672 N   0  0  0  0  0  0  0  0  0  0  0  0
   21.9005   -3.8391  -26.7763 O   0  0  0  0  0  0  0  0  0  0  0  0
   25.0798   -1.1580  -30.3698 H   0  0  0  0  0  0  0  0  0  0  0  0
   23.4518   -1.8243  -30.6913 H   0  0  0  0  0  0  0  0  0  0  0  0
   24.6512   -2.7911  -29.7755 H   0  0  0  0  0  0  0  0  0  0  0  0
   23.3712   -0.1704  -28.8784 H   0  0  0  0  0  0  0  0  0  0  0  0
   24.5652   -1.1401  -27.9372 H   0  0  0  0  0  0  0  0  0  0  0  0
   23.8870   -3.1762  -26.9353 H   0  0  0  0  0  0  0  0  0  0  0  0
   21.0803   -3.5165  -27.2241 H   0  0  0  0  0  0  0  0  0  0  0  0
  1  2  1  0
  1  7  1  0
  1  8  1  0
  1  9  1  0
  2  3  1  0
  2 10  1  0
  2 11  1  0
  3  4  2  0
  3  5  1  0
  5  6  1  0
  5 12  1  0
  6 13  1  0
M  END
> <intraLJ>
0.031     

> <intraEL>
2.399     

> <intraDihe>
5.945     

> <interLJ>
0.000     

> <interEJ>
0.000     

> <gridLJ>
-3.303    

> <gridEL>
0.000     

> <totalE>
5.073     

> <LGFE>
-3.303  

> <LE>
-0.551  

> <SMILES>
CCC(=O)NO

> <atom.dprop.GFE>
-0.071 -0.085 0 -1.2 -0.63 -1.3 0 0 0 0 0 0 0

> <atom.prop.CLASS>
PRPC PRPC NCLA GENA GEND MEOO NCLA NCLA NCLA NCLA NCLA NCLA NCLA

$$$$
13
     RDKit          3D

 13 12  0  0  0  0  0  0  0  0999 V2000
   17.4561   15.8039   -4.2107 C   0  0  0  0  0  0  0  0  0  0  0  0
   18.2085   15.2028   -5.4172 C   0  0  0  0  0  0  0  0  0  0  0  0
   19.6868   15.2179   -5.0884 C   0  0  0  0  0  0  0  0  0  0  0  0
   20.4567   16.0570   -5.5286 O   0  0  0  0  0  0  0  0  0  0  0  0
   20.1683   14.2659   -4.2488 N   0  0  0  0  0  0  0  0  0  0  0  0
   21.5356   14.2514   -3.9064 O   0  0  0  0  0  0  0  0  0  0  0  0
   16.3912   15.8213   -4.4449 H   0  0  0  0  0  0  0  0  0  0  0  0
   17.8193   16.8205   -4.0451 H   0  0  0  0  0  0  0  0  0  0  0  0
   17.6379   15.1885   -3.3272 H   0  0  0  0  0  0  0  0  0  0  0  0
   18.0485   15.8331   -6.2814 H   0  0  0  0  0  0  0  0  0  0  0  0
   17.8839   14.1832   -5.5725 H   0  0  0  0  0  0  0  0  0  0  0  0
   19.5606   13.5406   -3.8346 H   0  0  0  0  0  0  0  0  0  0  0  0
   21.9211   15.0224   -4.3904 H   0  0  0  0  0  0  0  0  0  0  0  0
  1  2  1  0
  1  7  1  0
  1  8  1  0
  1  9  1  0
  2  3  1  0
  2 10  1  0
  2 11  1  0
  3  4  2  0
  3  5  1  0
  5  6  1  0
  5 12  1  0
  6 13  1  0
M  END
> <intraLJ>
0.053     

> <intraEL>
2.368     

> <intraDihe>
5.919     

> <interLJ>
0.000     

> <interEJ>
0.000     

> <gridLJ>
-3.275    

> <gridEL>
0.000     

> <totalE>
5.065     

> <LGFE>
-3.275  

> <LE>
-0.546  

> <SMILES>
CCC(=O)NO

> <atom.dprop.GFE>
-0.49 -0.59 0 -1.1 -0.47 -0.62 0 0 0 0 0 0 0

> <atom.prop.CLASS>
PRPC PRPC NCLA GENA GEND MEOO NCLA NCLA NCLA NCLA NCLA NCLA NCLA

$$$$
13
     RDKit          3D

 13 12  0  0  0  0  0  0  0  0999 V2000
  -22.0144    8.1215   -9.0073 C   0  0  0  0  0  0  0  0  0  0  0  0
  -21.3141    7.4910  -10.2300 C   0  0  0  0  0  0  0  0  0  0  0  0
  -21.2294    5.9981   -9.9895 C   0  0  0  0  0  0  0  0  0  0  0  0
  -21.9863    5.1967  -10.5143 O   0  0  0  0  0  0  0  0  0  0  0  0
  -20.2523    5.5336   -9.1693 N   0  0  0  0  0  0  0  0  0  0  0  0
  -20.1300    4.1501   -8.9286 O   0  0  0  0  0  0  0  0  0  0  0  0
  -22.0599    9.2007   -9.1572 H   0  0  0  0  0  0  0  0  0  0  0  0
  -21.4291    7.8923   -8.1142 H   0  0  0  0  0  0  0  0  0  0  0  0
  -23.0220    7.7108   -8.9152 H   0  0  0  0  0  0  0  0  0  0  0  0
  -20.3072    7.8796  -10.2981 H   0  0  0  0  0  0  0  0  0  0  0  0
  -21.9007    7.6805  -11.1184 H   0  0  0  0  0  0  0  0  0  0  0  0
  -19.5748    6.1638   -8.7104 H   0  0  0  0  0  0  0  0  0  0  0  0
  -20.8523    3.7398   -9.4645 H   0  0  0  0  0  0  0  0  0  0  0  0
  1  2  1  0
  1  7  1  0
  1  8  1  0
  1  9  1  0
  2  3  1  0
  2 10  1  0
  2 11  1  0
  3  4  2  0
  3  5  1  0
  5  6  1  0
  5 12  1  0
  6 13  1  0
M  END
> <intraLJ>
0.072     

> <intraEL>
2.380     

> <intraDihe>
5.917     

> <interLJ>
0.000     

> <interEJ>
0.000     

> <gridLJ>
-3.209    

> <gridEL>
0.000     

> <totalE>
5.160     

> <LGFE>
-3.209  

> <LE>
-0.535  

> <SMILES>
CCC(=O)NO

> <atom.dprop.GFE>
-0.28 -0.29 0 -1.1 -0.8 -0.78 0 0 0 0 0 0 0

> <atom.prop.CLASS>
PRPC PRPC NCLA GENA GEND MEOO NCLA NCLA NCLA NCLA NCLA NCLA NCLA

$$$$
13
     RDKit          3D

 13 12  0  0  0  0  0  0  0  0999 V2000
   23.1932    1.5637  -28.9724 C   0  0  0  0  0  0  0  0  0  0  0  0
   21.9539    2.1795  -29.6565 C   0  0  0  0  0  0  0  0  0  0  0  0
   22.2868    2.3691  -31.1217 C   0  0  0  0  0  0  0  0  0  0  0  0
   22.5968    3.4496  -31.5980 O   0  0  0  0  0  0  0  0  0  0  0  0
   22.2585    1.2811  -31.9333 N   0  0  0  0  0  0  0  0  0  0  0  0
   22.5743    1.4111  -33.3009 O   0  0  0  0  0  0  0  0  0  0  0  0
   22.9748    1.4446  -27.9106 H   0  0  0  0  0  0  0  0  0  0  0  0
   24.0382    2.2425  -29.1065 H   0  0  0  0  0  0  0  0  0  0  0  0
   23.4116    0.5936  -29.4235 H   0  0  0  0  0  0  0  0  0  0  0  0
   21.7609    3.1524  -29.2255 H   0  0  0  0  0  0  0  0  0  0  0  0
   21.1164    1.5021  -29.5616 H   0  0  0  0  0  0  0  0  0  0  0  0
   22.0181    0.3400  -31.5821 H   0  0  0  0  0  0  0  0  0  0  0  0
   22.7832    2.3702  -33.4176 H   0  0  0  0  0  0  0  0  0  0  0  0
  1  2  1  0
  1  7  1  0
  1  8  1  0
  1  9  1  0
  2  3  1  0
  2 10  1  0
  2 11  1  0
  3  4  2  0
  3  5  1  0
  5  6  1  0
  5 12  1  0
  6 13  1  0
M  END
> <intraLJ>
0.053     

> <intraEL>
2.368     

> <intraDihe>
5.919     

> <interLJ>
0.000     

> <interEJ>
0.000     

> <gridLJ>
-3.179    

> <gridEL>
0.000     

> <totalE>
5.161     

> <LGFE>
-3.179  

> <LE>
-0.530  

> <SMILES>
CCC(=O)NO

> <atom.dprop.GFE>
-0.3 -0.36 0 -1.5 -0.87 -0.16 0 0 0 0 0 0 0

> <atom.prop.CLASS>
PRPC PRPC NCLA GENA GEND MEOO NCLA NCLA NCLA NCLA NCLA NCLA NCLA

$$$$
13
     RDKit          3D

 13 12  0  0  0  0  0  0  0  0999 V2000
  -22.6110    7.3544   10.3828 C   0  0  0  0  0  0  0  0  0  0  0  0
  -24.1163    7.1929   10.6842 C   0  0  0  0  0  0  0  0  0  0  0  0
  -24.4165    7.9728   11.9473 C   0  0  0  0  0  0  0  0  0  0  0  0
  -24.9743    9.0588   11.9406 O   0  0  0  0  0  0  0  0  0  0  0  0
  -24.0666    7.4253   13.1393 N   0  0  0  0  0  0  0  0  0  0  0  0
  -24.3394    8.1119   14.3397 O   0  0  0  0  0  0  0  0  0  0  0  0
  -22.3767    6.7768    9.4880 H   0  0  0  0  0  0  0  0  0  0  0  0
  -22.0425    6.9729   11.2338 H   0  0  0  0  0  0  0  0  0  0  0  0
  -22.3853    8.4103   10.2198 H   0  0  0  0  0  0  0  0  0  0  0  0
  -24.3274    6.1493   10.8737 H   0  0  0  0  0  0  0  0  0  0  0  0
  -24.6933    7.5981    9.8644 H   0  0  0  0  0  0  0  0  0  0  0  0
  -23.6063    6.5031   13.2061 H   0  0  0  0  0  0  0  0  0  0  0  0
  -24.7854    8.9462   14.0530 H   0  0  0  0  0  0  0  0  0  0  0  0
  1  2  1  0
  1  7  1  0
  1  8  1  0
  1  9  1  0
  2  3  1  0
  2 10  1  0
  2 11  1  0
  3  4  2  0
  3  5  1  0
  5  6  1  0
  5 12  1  0
  6 13  1  0
M  END
> <intraLJ>
0.083     

> <intraEL>
2.378     

> <intraDihe>
5.908     

> <interLJ>
0.000     

> <interEJ>
0.000     

> <gridLJ>
-3.173    

> <gridEL>
0.000     

> <totalE>
5.195     

> <LGFE>
-3.173  

> <LE>
-0.529  

> <SMILES>
CCC(=O)NO

> <atom.dprop.GFE>
-0.32 -0.48 0 -1 -0.73 -0.63 0 0 0 0 0 0 0

> <atom.prop.CLASS>
PRPC PRPC NCLA GENA GEND MEOO NCLA NCLA NCLA NCLA NCLA NCLA NCLA

$$$$
13
     RDKit          3D

 13 12  0  0  0  0  0  0  0  0999 V2000
    2.8830    2.9278  -38.7479 C   0  0  0  0  0  0  0  0  0  0  0  0
    2.1334    1.5827  -38.8569 C   0  0  0  0  0  0  0  0  0  0  0  0
    2.6422    0.6841  -37.7490 C   0  0  0  0  0  0  0  0  0  0  0  0
    2.0130    0.4712  -36.7247 O   0  0  0  0  0  0  0  0  0  0  0  0
    3.8430    0.0734  -37.9172 N   0  0  0  0  0  0  0  0  0  0  0  0
    4.3476   -0.7813  -36.9163 O   0  0  0  0  0  0  0  0  0  0  0  0
    2.5429    3.5762  -39.5561 H   0  0  0  0  0  0  0  0  0  0  0  0
    3.9542    2.7384  -38.8460 H   0  0  0  0  0  0  0  0  0  0  0  0
    2.6667    3.3859  -37.7806 H   0  0  0  0  0  0  0  0  0  0  0  0
    2.3753    1.1206  -39.8043 H   0  0  0  0  0  0  0  0  0  0  0  0
    1.0730    1.7499  -38.7274 H   0  0  0  0  0  0  0  0  0  0  0  0
    4.4115    0.2048  -38.7695 H   0  0  0  0  0  0  0  0  0  0  0  0
    3.6541   -0.7756  -36.2118 H   0  0  0  0  0  0  0  0  0  0  0  0
  1  2  1  0
  1  7  1  0
  1  8  1  0
  1  9  1  0
  2  3  1  0
  2 10  1  0
  2 11  1  0
  3  4  2  0
  3  5  1  0
  5  6  1  0
  5 12  1  0
  6 13  1  0
M  END
> <intraLJ>
0.079     

> <intraEL>
2.378     

> <intraDihe>
5.911     

> <interLJ>
0.000     

> <interEJ>
0.000     

> <gridLJ>
-3.149    

> <gridEL>
0.000     

> <totalE>
5.220     

> <LGFE>
-3.149  

> <LE>
-0.525  

> <SMILES>
CCC(=O)NO

> <atom.dprop.GFE>
-0.46 -0.42 0 -0.73 -0.9 -0.64 0 0 0 0 0 0 0

> <atom.prop.CLASS>
PRPC PRPC NCLA GENA GEND MEOO NCLA NCLA NCLA NCLA NCLA NCLA NCLA

$$$$
13
     RDKit          3D

 13 12  0  0  0  0  0  0  0  0999 V2000
  -29.6959  -10.1268   27.3316 C   0  0  0  0  0  0  0  0  0  0  0  0
  -28.9455  -10.5034   26.0362 C   0  0  0  0  0  0  0  0  0  0  0  0
  -29.9155  -10.3480   24.8836 C   0  0  0  0  0  0  0  0  0  0  0  0
  -30.5101  -11.2901   24.3841 O   0  0  0  0  0  0  0  0  0  0  0  0
  -30.1469   -9.0999   24.4020 N   0  0  0  0  0  0  0  0  0  0  0  0
  -31.0522   -8.9092   23.3385 O   0  0  0  0  0  0  0  0  0  0  0  0
  -29.0146  -10.2582   28.1729 H   0  0  0  0  0  0  0  0  0  0  0  0
  -30.5569  -10.7899   27.4405 H   0  0  0  0  0  0  0  0  0  0  0  0
  -30.0242   -9.0872   27.2710 H   0  0  0  0  0  0  0  0  0  0  0  0
  -28.6491  -11.5421   26.0903 H   0  0  0  0  0  0  0  0  0  0  0  0
  -28.1090   -9.8326   25.8966 H   0  0  0  0  0  0  0  0  0  0  0  0
  -29.6838   -8.2648   24.7956 H   0  0  0  0  0  0  0  0  0  0  0  0
  -31.3842   -9.8165   23.1291 H   0  0  0  0  0  0  0  0  0  0  0  0
  1  2  1  0
  1  7  1  0
  1  8  1  0
  1  9  1  0
  2  3  1  0
  2 10  1  0
  2 11  1  0
  3  4  2  0
  3  5  1  0
  5  6  1  0
  5 12  1  0
  6 13  1  0
M  END
> <intraLJ>
0.043     

> <intraEL>
2.371     

> <intraDihe>
5.928     

> <interLJ>
0.000     

> <interEJ>
0.000     

> <gridLJ>
-3.078    

> <gridEL>
0.000     

> <totalE>
5.263     

> <LGFE>
-3.078  

> <LE>
-0.513  

> <SMILES>
CCC(=O)NO

> <atom.dprop.GFE>
-0.42 -0.47 0 -0.71 -0.77 -0.72 0 0 0 0 0 0 0

> <atom.prop.CLASS>
PRPC PRPC NCLA GENA GEND MEOO NCLA NCLA NCLA NCLA NCLA NCLA NCLA

$$$$
13
     RDKit          3D

 13 12  0  0  0  0  0  0  0  0999 V2000
  -19.0887    7.7855   -7.7099 C   0  0  0  0  0  0  0  0  0  0  0  0
  -19.0810    8.9696   -6.7195 C   0  0  0  0  0  0  0  0  0  0  0  0
  -17.6596    9.4854   -6.6339 C   0  0  0  0  0  0  0  0  0  0  0  0
  -16.9115    9.2203   -5.7062 O   0  0  0  0  0  0  0  0  0  0  0  0
  -17.1945   10.2595   -7.6476 N   0  0  0  0  0  0  0  0  0  0  0  0
  -15.8733   10.7497   -7.6138 O   0  0  0  0  0  0  0  0  0  0  0  0
  -20.1032    7.3890   -7.7621 H   0  0  0  0  0  0  0  0  0  0  0  0
  -18.4056    7.0178   -7.3401 H   0  0  0  0  0  0  0  0  0  0  0  0
  -18.7690    8.1342   -8.6941 H   0  0  0  0  0  0  0  0  0  0  0  0
  -19.3697    8.6117   -5.7407 H   0  0  0  0  0  0  0  0  0  0  0  0
  -19.7274    9.7533   -7.0900 H   0  0  0  0  0  0  0  0  0  0  0  0
  -17.7776   10.5032   -8.4645 H   0  0  0  0  0  0  0  0  0  0  0  0
  -15.4975   10.3933   -6.7717 H   0  0  0  0  0  0  0  0  0  0  0  0
  1  2  1  0
  1  7  1  0
  1  8  1  0
  1  9  1  0
  2  3  1  0
  2 10  1  0
  2 11  1  0
  3  4  2  0
  3  5  1  0
  5  6  1  0
  5 12  1  0
  6 13  1  0
M  END
> <intraLJ>
0.054     

> <intraEL>
2.368     

> <intraDihe>
5.918     

> <interLJ>
0.000     

> <interEJ>
0.000     

> <gridLJ>
-3.041    

> <gridEL>
0.000     

> <totalE>
5.298     

> <LGFE>
-3.041  

> <LE>
-0.507  

> <SMILES>
CCC(=O)NO

> <atom.dprop.GFE>
-0.14 -0.12 0 -1.1 -0.57 -1.1 0 0 0 0 0 0 0

> <atom.prop.CLASS>
PRPC PRPC NCLA GENA GEND MEOO NCLA NCLA NCLA NCLA NCLA NCLA NCLA

$$$$
13
     RDKit          3D

 13 12  0  0  0  0  0  0  0  0999 V2000
  -14.1318   11.0651  -14.4706 C   0  0  0  0  0  0  0  0  0  0  0  0
  -14.5448    9.7943  -13.6976 C   0  0  0  0  0  0  0  0  0  0  0  0
  -15.5784    9.0668  -14.5318 C   0  0  0  0  0  0  0  0  0  0  0  0
  -16.7777    9.1397  -14.3153 O   0  0  0  0  0  0  0  0  0  0  0  0
  -15.1480    8.3184  -15.5795 N   0  0  0  0  0  0  0  0  0  0  0  0
  -16.0777    7.6353  -16.3895 O   0  0  0  0  0  0  0  0  0  0  0  0
  -13.4048   11.6114  -13.8687 H   0  0  0  0  0  0  0  0  0  0  0  0
  -15.0207   11.6790  -14.6317 H   0  0  0  0  0  0  0  0  0  0  0  0
  -13.6905   10.7797  -15.4278 H   0  0  0  0  0  0  0  0  0  0  0  0
  -15.0077   10.0848  -12.7644 H   0  0  0  0  0  0  0  0  0  0  0  0
  -13.6803    9.1595  -13.5603 H   0  0  0  0  0  0  0  0  0  0  0  0
  -14.1468    8.2327  -15.8187 H   0  0  0  0  0  0  0  0  0  0  0  0
  -16.9584    7.8609  -16.0012 H   0  0  0  0  0  0  0  0  0  0  0  0
  1  2  1  0
  1  7  1  0
  1  8  1  0
  1  9  1  0
  2  3  1  0
  2 10  1  0
  2 11  1  0
  3  4  2  0
  3  5  1  0
  5  6  1  0
  5 12  1  0
  6 13  1  0
M  END
> <intraLJ>
0.046     

> <intraEL>
2.370     

> <intraDihe>
5.925     

> <interLJ>
0.000     

> <interEJ>
0.000     

> <gridLJ>
-3.026    

> <gridEL>
0.000     

> <totalE>
5.315     

> <LGFE>
-3.026  

> <LE>
-0.504  

> <SMILES>
CCC(=O)NO

> <atom.dprop.GFE>
-0.35 -0.48 0 -0.68 -0.77 -0.75 0 0 0 0 0 0 0

> <atom.prop.CLASS>
PRPC PRPC NCLA GENA GEND MEOO NCLA NCLA NCLA NCLA NCLA NCLA NCLA

$$$$
13
     RDKit          3D

 13 12  0  0  0  0  0  0  0  0999 V2000
    5.3754   -3.6175   -9.3304 C   0  0  0  0  0  0  0  0  0  0  0  0
    4.0755   -2.8735   -8.9567 C   0  0  0  0  0  0  0  0  0  0  0  0
    3.8749   -1.7657   -9.9698 C   0  0  0  0  0  0  0  0  0  0  0  0
    3.0794   -1.8454  -10.8925 O   0  0  0  0  0  0  0  0  0  0  0  0
    4.5993   -0.6263   -9.8282 N   0  0  0  0  0  0  0  0  0  0  0  0
    4.4338    0.4346  -10.7416 O   0  0  0  0  0  0  0  0  0  0  0  0
    5.5445   -4.4034   -8.5934 H   0  0  0  0  0  0  0  0  0  0  0  0
    6.2023   -2.9042   -9.3129 H   0  0  0  0  0  0  0  0  0  0  0  0
    5.2710   -4.0514  -10.3270 H   0  0  0  0  0  0  0  0  0  0  0  0
    4.1965   -2.4215   -7.9817 H   0  0  0  0  0  0  0  0  0  0  0  0
    3.2415   -3.5601   -9.0031 H   0  0  0  0  0  0  0  0  0  0  0  0
    5.2755   -0.4975   -9.0582 H   0  0  0  0  0  0  0  0  0  0  0  0
    3.7450    0.1132  -11.3736 H   0  0  0  0  0  0  0  0  0  0  0  0
  1  2  1  0
  1  7  1  0
  1  8  1  0
  1  9  1  0
  2  3  1  0
  2 10  1  0
  2 11  1  0
  3  4  2  0
  3  5  1  0
  5  6  1  0
  5 12  1  0
  6 13  1  0
M  END
> <intraLJ>
0.075     

> <intraEL>
2.379     

> <intraDihe>
5.914     

> <interLJ>
0.000     

> <interEJ>
0.000     

> <gridLJ>
-2.961    

> <gridEL>
0.000     

> <totalE>
5.407     

> <LGFE>
-2.961  

> <LE>
-0.494  

> <SMILES>
CCC(=O)NO

> <atom.dprop.GFE>
-0.13 -0.2 0 -1.2 -0.89 -0.57 0 0 0 0 0 0 0

> <atom.prop.CLASS>
PRPC PRPC NCLA GENA GEND MEOO NCLA NCLA NCLA NCLA NCLA NCLA NCLA

$$$$
13
     RDKit          3D

 13 12  0  0  0  0  0  0  0  0999 V2000
   -9.1629   13.3910    2.4132 C   0  0  0  0  0  0  0  0  0  0  0  0
   -9.8453   12.4803    3.4563 C   0  0  0  0  0  0  0  0  0  0  0  0
  -10.0354   11.1189    2.8206 C   0  0  0  0  0  0  0  0  0  0  0  0
  -11.1033   10.7420    2.3645 O   0  0  0  0  0  0  0  0  0  0  0  0
   -8.9613   10.2927    2.7375 N   0  0  0  0  0  0  0  0  0  0  0  0
   -9.0915    9.0218    2.1417 O   0  0  0  0  0  0  0  0  0  0  0  0
   -9.0423   14.3826    2.8507 H   0  0  0  0  0  0  0  0  0  0  0  0
   -9.8017   13.4474    1.5291 H   0  0  0  0  0  0  0  0  0  0  0  0
   -8.1887   12.9739    2.1501 H   0  0  0  0  0  0  0  0  0  0  0  0
  -10.8214   12.8829    3.6901 H   0  0  0  0  0  0  0  0  0  0  0  0
   -9.2080   12.3871    4.3248 H   0  0  0  0  0  0  0  0  0  0  0  0
   -8.0304   10.5647    3.0928 H   0  0  0  0  0  0  0  0  0  0  0  0
  -10.0392    8.9733    1.8644 H   0  0  0  0  0  0  0  0  0  0  0  0
  1  2  1  0
  1  7  1  0
  1  8  1  0
  1  9  1  0
  2  3  1  0
  2 10  1  0
  2 11  1  0
  3  4  2  0
  3  5  1  0
  5  6  1  0
  5 12  1  0
  6 13  1  0
M  END
> <intraLJ>
0.051     

> <intraEL>
2.369     

> <intraDihe>
5.920     

> <interLJ>
0.000     

> <interEJ>
0.000     

> <gridLJ>
-2.890    

> <gridEL>
0.000     

> <totalE>
5.450     

> <LGFE>
-2.890  

> <LE>
-0.482  

> <SMILES>
CCC(=O)NO

> <atom.dprop.GFE>
-0.32 -0.17 0 -0.089 -1.3 -1 0 0 0 0 0 0 0

> <atom.prop.CLASS>
PRPC PRPC NCLA GENA GEND MEOO NCLA NCLA NCLA NCLA NCLA NCLA NCLA

$$$$
13
     RDKit          3D

 13 12  0  0  0  0  0  0  0  0999 V2000
  -11.4638   12.1714    2.4987 C   0  0  0  0  0  0  0  0  0  0  0  0
  -10.6946   11.3556    3.5597 C   0  0  0  0  0  0  0  0  0  0  0  0
  -10.4133    9.9889    2.9708 C   0  0  0  0  0  0  0  0  0  0  0  0
  -11.0603    8.9949    3.2605 O   0  0  0  0  0  0  0  0  0  0  0  0
   -9.4092    9.8738    2.0644 N   0  0  0  0  0  0  0  0  0  0  0  0
   -9.1226    8.6225    1.4822 O   0  0  0  0  0  0  0  0  0  0  0  0
  -11.6941   13.1506    2.9199 H   0  0  0  0  0  0  0  0  0  0  0  0
  -12.3877   11.6424    2.2551 H   0  0  0  0  0  0  0  0  0  0  0  0
  -10.8440   12.2811    1.6064 H   0  0  0  0  0  0  0  0  0  0  0  0
  -11.3249   11.2255    4.4288 H   0  0  0  0  0  0  0  0  0  0  0  0
   -9.7600   11.8500    3.7863 H   0  0  0  0  0  0  0  0  0  0  0  0
   -8.8391   10.6834    1.7705 H   0  0  0  0  0  0  0  0  0  0  0  0
   -9.7812    8.0046    1.8843 H   0  0  0  0  0  0  0  0  0  0  0  0
  1  2  1  0
  1  7  1  0
  1  8  1  0
  1  9  1  0
  2  3  1  0
  2 10  1  0
  2 11  1  0
  3  4  2  0
  3  5  1  0
  5  6  1  0
  5 12  1  0
  6 13  1  0
M  END
> <intraLJ>
0.057     

> <intraEL>
2.367     

> <intraDihe>
5.916     

> <interLJ>
0.000     

> <interEJ>
0.000     

> <gridLJ>
-2.837    

> <gridEL>
0.000     

> <totalE>
5.503     

> <LGFE>
-2.837  

> <LE>
-0.473  

> <SMILES>
CCC(=O)NO

> <atom.dprop.GFE>
-0.22 -0.0027 0 -1.1 -0.5 -1 0 0 0 0 0 0 0

> <atom.prop.CLASS>
PRPC PRPC NCLA GENA GEND MEOO NCLA NCLA NCLA NCLA NCLA NCLA NCLA

$$$$
13
     RDKit          3D

 13 12  0  0  0  0  0  0  0  0999 V2000
  -20.2370    6.4856  -12.5003 C   0  0  0  0  0  0  0  0  0  0  0  0
  -21.1815    6.9785  -11.3832 C   0  0  0  0  0  0  0  0  0  0  0  0
  -21.4906    5.7952  -10.4899 C   0  0  0  0  0  0  0  0  0  0  0  0
  -22.5400    5.1742  -10.5495 O   0  0  0  0  0  0  0  0  0  0  0  0
  -20.5460    5.3982   -9.5993 N   0  0  0  0  0  0  0  0  0  0  0  0
  -20.7879    4.2934   -8.7579 O   0  0  0  0  0  0  0  0  0  0  0  0
  -20.0260    7.3238  -13.1653 H   0  0  0  0  0  0  0  0  0  0  0  0
  -20.7375    5.6870  -13.0523 H   0  0  0  0  0  0  0  0  0  0  0  0
  -19.3113    6.1153  -12.0550 H   0  0  0  0  0  0  0  0  0  0  0  0
  -22.1074    7.3162  -11.8285 H   0  0  0  0  0  0  0  0  0  0  0  0
  -20.6861    7.7468  -10.8056 H   0  0  0  0  0  0  0  0  0  0  0  0
  -19.6344    5.8765   -9.5156 H   0  0  0  0  0  0  0  0  0  0  0  0
  -21.6926    3.9837   -9.0083 H   0  0  0  0  0  0  0  0  0  0  0  0
  1  2  1  0
  1  7  1  0
  1  8  1  0
  1  9  1  0
  2  3  1  0
  2 10  1  0
  2 11  1  0
  3  4  2  0
  3  5  1  0
  5  6  1  0
  5 12  1  0
  6 13  1  0
M  END
> <intraLJ>
0.056     

> <intraEL>
2.367     

> <intraDihe>
5.916     

> <interLJ>
0.000     

> <interEJ>
0.000     

> <gridLJ>
-2.807    

> <gridEL>
0.000     

> <totalE>
5.533     

> <LGFE>
-2.807  

> <LE>
-0.468  

> <SMILES>
CCC(=O)NO

> <atom.dprop.GFE>
-0.15 -0.34 0 -0.73 -0.8 -0.78 0 0 0 0 0 0 0

> <atom.prop.CLASS>
PRPC PRPC NCLA GENA GEND MEOO NCLA NCLA NCLA NCLA NCLA NCLA NCLA

$$$$
13
     RDKit          3D

 13 12  0  0  0  0  0  0  0  0999 V2000
   10.9068   12.5752  -39.6685 C   0  0  0  0  0  0  0  0  0  0  0  0
    9.5390   12.5705  -38.9529 C   0  0  0  0  0  0  0  0  0  0  0  0
    9.7660   13.0328  -37.5286 C   0  0  0  0  0  0  0  0  0  0  0  0
    9.8636   12.2614  -36.5874 O   0  0  0  0  0  0  0  0  0  0  0  0
    9.8872   14.3650  -37.2968 N   0  0  0  0  0  0  0  0  0  0  0  0
   10.1121   14.8371  -35.9878 O   0  0  0  0  0  0  0  0  0  0  0  0
   10.7608   12.2205  -40.6893 H   0  0  0  0  0  0  0  0  0  0  0  0
   11.5825   11.9049  -39.1327 H   0  0  0  0  0  0  0  0  0  0  0  0
   11.3084   13.5906  -39.6760 H   0  0  0  0  0  0  0  0  0  0  0  0
    9.1609   11.5578  -38.9228 H   0  0  0  0  0  0  0  0  0  0  0  0
    8.8689   13.2566  -39.4523 H   0  0  0  0  0  0  0  0  0  0  0  0
    9.8284   15.0623  -38.0566 H   0  0  0  0  0  0  0  0  0  0  0  0
   10.1477   14.0205  -35.4318 H   0  0  0  0  0  0  0  0  0  0  0  0
  1  2  1  0
  1  7  1  0
  1  8  1  0
  1  9  1  0
  2  3  1  0
  2 10  1  0
  2 11  1  0
  3  4  2  0
  3  5  1  0
  5  6  1  0
  5 12  1  0
  6 13  1  0
M  END
> <intraLJ>
0.041     

> <intraEL>
2.372     

> <intraDihe>
5.930     

> <interLJ>
0.000     

> <interEJ>
0.000     

> <gridLJ>
-2.761    

> <gridEL>
0.000     

> <totalE>
5.581     

> <LGFE>
-2.761  

> <LE>
-0.460  

> <SMILES>
CCC(=O)NO

> <atom.dprop.GFE>
-0.2 -0.079 0 -1.6 -0.25 -0.67 0 0 0 0 0 0 0

> <atom.prop.CLASS>
PRPC PRPC NCLA GENA GEND MEOO NCLA NCLA NCLA NCLA NCLA NCLA NCLA

$$$$
13
     RDKit          3D

 13 12  0  0  0  0  0  0  0  0999 V2000
  -33.7312    9.2316   15.2906 C   0  0  0  0  0  0  0  0  0  0  0  0
  -34.9578    9.0539   14.3703 C   0  0  0  0  0  0  0  0  0  0  0  0
  -36.0653    8.4357   15.1979 C   0  0  0  0  0  0  0  0  0  0  0  0
  -36.9345    9.0967   15.7439 O   0  0  0  0  0  0  0  0  0  0  0  0
  -36.1008    7.0838   15.3169 N   0  0  0  0  0  0  0  0  0  0  0  0
  -37.1221    6.4669   16.0674 O   0  0  0  0  0  0  0  0  0  0  0  0
  -32.9177    9.6539   14.6998 H   0  0  0  0  0  0  0  0  0  0  0  0
  -33.4424    8.2524   15.6787 H   0  0  0  0  0  0  0  0  0  0  0  0
  -33.9888    9.9033   16.1120 H   0  0  0  0  0  0  0  0  0  0  0  0
  -34.7051    8.3648   13.5760 H   0  0  0  0  0  0  0  0  0  0  0  0
  -35.2769   10.0203   14.0049 H   0  0  0  0  0  0  0  0  0  0  0  0
  -35.4006    6.4741   14.8644 H   0  0  0  0  0  0  0  0  0  0  0  0
  -37.6786    7.2163   16.3929 H   0  0  0  0  0  0  0  0  0  0  0  0
  1  2  1  0
  1  7  1  0
  1  8  1  0
  1  9  1  0
  2  3  1  0
  2 10  1  0
  2 11  1  0
  3  4  2  0
  3  5  1  0
  5  6  1  0
  5 12  1  0
  6 13  1  0
M  END
> <intraLJ>
0.050     

> <intraEL>
2.392     

> <intraDihe>
5.943     

> <interLJ>
0.000     

> <interEJ>
0.000     

> <gridLJ>
-2.746    

> <gridEL>
0.000     

> <totalE>
5.639     

> <LGFE>
-2.746  

> <LE>
-0.458  

> <SMILES>
CCC(=O)NO

> <atom.dprop.GFE>
-0.32 -0.41 0 -0.77 -0.84 -0.41 0 0 0 0 0 0 0

> <atom.prop.CLASS>
PRPC PRPC NCLA GENA GEND MEOO NCLA NCLA NCLA NCLA NCLA NCLA NCLA

$$$$
13
     RDKit          3D

 13 12  0  0  0  0  0  0  0  0999 V2000
    4.4297    9.6130  -25.7116 C   0  0  0  0  0  0  0  0  0  0  0  0
    3.1760    9.3565  -26.5750 C   0  0  0  0  0  0  0  0  0  0  0  0
    3.6339    9.1919  -28.0092 C   0  0  0  0  0  0  0  0  0  0  0  0
    3.7198    8.1049  -28.5585 O   0  0  0  0  0  0  0  0  0  0  0  0
    3.9407   10.3083  -28.7182 N   0  0  0  0  0  0  0  0  0  0  0  0
    4.3585   10.2008  -30.0602 O   0  0  0  0  0  0  0  0  0  0  0  0
    4.1109    9.7578  -24.6789 H   0  0  0  0  0  0  0  0  0  0  0  0
    4.9273   10.5132  -26.0790 H   0  0  0  0  0  0  0  0  0  0  0  0
    5.1004    8.7542  -25.7824 H   0  0  0  0  0  0  0  0  0  0  0  0
    2.5303   10.2225  -26.5241 H   0  0  0  0  0  0  0  0  0  0  0  0
    2.6910    8.4483  -26.2447 H   0  0  0  0  0  0  0  0  0  0  0  0
    3.8718   11.2545  -28.3098 H   0  0  0  0  0  0  0  0  0  0  0  0
    4.3407    9.2306  -30.2490 H   0  0  0  0  0  0  0  0  0  0  0  0
  1  2  1  0
  1  7  1  0
  1  8  1  0
  1  9  1  0
  2  3  1  0
  2 10  1  0
  2 11  1  0
  3  4  2  0
  3  5  1  0
  5  6  1  0
  5 12  1  0
  6 13  1  0
M  END
> <intraLJ>
0.079     

> <intraEL>
2.379     

> <intraDihe>
5.911     

> <interLJ>
0.000     

> <interEJ>
0.000     

> <gridLJ>
-2.760    

> <gridEL>
0.000     

> <totalE>
5.609     

> <LGFE>
-2.760  

> <LE>
-0.460  

> <SMILES>
CCC(=O)NO

> <atom.dprop.GFE>
-0.11 -0.22 0 -1.3 -0.6 -0.5 0 0 0 0 0 0 0

> <atom.prop.CLASS>
PRPC PRPC NCLA GENA GEND MEOO NCLA NCLA NCLA NCLA NCLA NCLA NCLA

$$$$
13
     RDKit          3D

 13 12  0  0  0  0  0  0  0  0999 V2000
   12.9465    4.4888  -44.2151 C   0  0  0  0  0  0  0  0  0  0  0  0
   13.2510    5.9499  -44.6095 C   0  0  0  0  0  0  0  0  0  0  0  0
   13.0938    6.8016  -43.3671 C   0  0  0  0  0  0  0  0  0  0  0  0
   14.0359    7.1306  -42.6637 O   0  0  0  0  0  0  0  0  0  0  0  0
   11.8499    7.2339  -43.0373 N   0  0  0  0  0  0  0  0  0  0  0  0
   11.6610    8.0396  -41.8961 O   0  0  0  0  0  0  0  0  0  0  0  0
   13.0325    3.8679  -45.1074 H   0  0  0  0  0  0  0  0  0  0  0  0
   11.9289    4.4392  -43.8216 H   0  0  0  0  0  0  0  0  0  0  0  0
   13.6616    4.1614  -43.4576 H   0  0  0  0  0  0  0  0  0  0  0  0
   12.5216    6.2773  -45.3377 H   0  0  0  0  0  0  0  0  0  0  0  0
   14.2682    6.0213  -44.9694 H   0  0  0  0  0  0  0  0  0  0  0  0
   11.0187    6.9992  -43.6038 H   0  0  0  0  0  0  0  0  0  0  0  0
   12.5676    8.1515  -41.5182 H   0  0  0  0  0  0  0  0  0  0  0  0
  1  2  1  0
  1  7  1  0
  1  8  1  0
  1  9  1  0
  2  3  1  0
  2 10  1  0
  2 11  1  0
  3  4  2  0
  3  5  1  0
  5  6  1  0
  5 12  1  0
  6 13  1  0
M  END
> <intraLJ>
0.053     

> <intraEL>
2.389     

> <intraDihe>
5.938     

> <interLJ>
0.000     

> <interEJ>
0.000     

> <gridLJ>
-2.731    

> <gridEL>
0.000     

> <totalE>
5.648     

> <LGFE>
-2.731  

> <LE>
-0.455  

> <SMILES>
CCC(=O)NO

> <atom.dprop.GFE>
-0.35 -0.33 0 -0.66 -0.73 -0.65 0 0 0 0 0 0 0

> <atom.prop.CLASS>
PRPC PRPC NCLA GENA GEND MEOO NCLA NCLA NCLA NCLA NCLA NCLA NCLA

$$$$
13
     RDKit          3D

 13 12  0  0  0  0  0  0  0  0999 V2000
  -38.1167   -2.2044   26.6450 C   0  0  0  0  0  0  0  0  0  0  0  0
  -39.2180   -1.9199   25.6015 C   0  0  0  0  0  0  0  0  0  0  0  0
  -39.8376   -3.2471   25.2163 C   0  0  0  0  0  0  0  0  0  0  0  0
  -40.9117   -3.6301   25.6522 O   0  0  0  0  0  0  0  0  0  0  0  0
  -39.1746   -4.0327   24.3296 N   0  0  0  0  0  0  0  0  0  0  0  0
  -39.7222   -5.2700   23.9342 O   0  0  0  0  0  0  0  0  0  0  0  0
  -37.6455   -1.2581   26.9129 H   0  0  0  0  0  0  0  0  0  0  0  0
  -37.3798   -2.8761   26.1992 H   0  0  0  0  0  0  0  0  0  0  0  0
  -38.5643   -2.6659   27.5276 H   0  0  0  0  0  0  0  0  0  0  0  0
  -38.7641   -1.4904   24.7188 H   0  0  0  0  0  0  0  0  0  0  0  0
  -39.9737   -1.2828   26.0400 H   0  0  0  0  0  0  0  0  0  0  0  0
  -38.2700   -3.7528   23.9170 H   0  0  0  0  0  0  0  0  0  0  0  0
  -40.5771   -5.3320   24.4266 H   0  0  0  0  0  0  0  0  0  0  0  0
  1  2  1  0
  1  7  1  0
  1  8  1  0
  1  9  1  0
  2  3  1  0
  2 10  1  0
  2 11  1  0
  3  4  2  0
  3  5  1  0
  5  6  1  0
  5 12  1  0
  6 13  1  0
M  END
> <intraLJ>
0.073     

> <intraEL>
2.380     

> <intraDihe>
5.916     

> <interLJ>
0.000     

> <interEJ>
0.000     

> <gridLJ>
-2.650    

> <gridEL>
0.000     

> <totalE>
5.719     

> <LGFE>
-2.650  

> <LE>
-0.442  

> <SMILES>
CCC(=O)NO

> <atom.dprop.GFE>
-0.42 -0.47 0 -0.59 -0.72 -0.45 0 0 0 0 0 0 0

> <atom.prop.CLASS>
PRPC PRPC NCLA GENA GEND MEOO NCLA NCLA NCLA NCLA NCLA NCLA NCLA

$$$$
13
     RDKit          3D

 13 12  0  0  0  0  0  0  0  0999 V2000
    3.5524    1.1801  -39.4284 C   0  0  0  0  0  0  0  0  0  0  0  0
    3.0920    2.5320  -38.8423 C   0  0  0  0  0  0  0  0  0  0  0  0
    3.2444    3.5771  -39.9278 C   0  0  0  0  0  0  0  0  0  0  0  0
    2.2976    4.0304  -40.5511 O   0  0  0  0  0  0  0  0  0  0  0  0
    4.4899    4.0431  -40.2011 N   0  0  0  0  0  0  0  0  0  0  0  0
    4.6748    5.0255  -41.1949 O   0  0  0  0  0  0  0  0  0  0  0  0
    3.4705    0.4226  -38.6482 H   0  0  0  0  0  0  0  0  0  0  0  0
    4.5920    1.2756  -39.7493 H   0  0  0  0  0  0  0  0  0  0  0  0
    2.9171    0.9177  -40.2768 H   0  0  0  0  0  0  0  0  0  0  0  0
    3.7434    2.8001  -38.0217 H   0  0  0  0  0  0  0  0  0  0  0  0
    2.0529    2.4631  -38.5512 H   0  0  0  0  0  0  0  0  0  0  0  0
    5.3253    3.7070  -39.6951 H   0  0  0  0  0  0  0  0  0  0  0  0
    3.7648    5.2101  -41.5341 H   0  0  0  0  0  0  0  0  0  0  0  0
  1  2  1  0
  1  7  1  0
  1  8  1  0
  1  9  1  0
  2  3  1  0
  2 10  1  0
  2 11  1  0
  3  4  2  0
  3  5  1  0
  5  6  1  0
  5 12  1  0
  6 13  1  0
M  END
> <intraLJ>
0.089     

> <intraEL>
2.377     

> <intraDihe>
5.903     

> <interLJ>
0.000     

> <interEJ>
0.000     

> <gridLJ>
-2.583    

> <gridEL>
0.000     

> <totalE>
5.787     

> <LGFE>
-2.583  

> <LE>
-0.430  

> <SMILES>
CCC(=O)NO

> <atom.dprop.GFE>
-0.39 -0.41 0 -0.74 -0.92 -0.12 0 0 0 0 0 0 0

> <atom.prop.CLASS>
PRPC PRPC NCLA GENA GEND MEOO NCLA NCLA NCLA NCLA NCLA NCLA NCLA

$$$$
13
     RDKit          3D

 13 12  0  0  0  0  0  0  0  0999 V2000
  -43.5577    9.6304   25.7253 C   0  0  0  0  0  0  0  0  0  0  0  0
  -43.2315    9.2624   24.2620 C   0  0  0  0  0  0  0  0  0  0  0  0
  -41.9499    8.4555   24.2678 C   0  0  0  0  0  0  0  0  0  0  0  0
  -41.9311    7.2380   24.1796 O   0  0  0  0  0  0  0  0  0  0  0  0
  -40.7707    9.1227   24.3537 N   0  0  0  0  0  0  0  0  0  0  0  0
  -39.5539    8.4109   24.3493 O   0  0  0  0  0  0  0  0  0  0  0  0
  -44.4665   10.2332   25.7327 H   0  0  0  0  0  0  0  0  0  0  0  0
  -42.7241   10.2057   26.1338 H   0  0  0  0  0  0  0  0  0  0  0  0
  -43.7066    8.7167   26.3042 H   0  0  0  0  0  0  0  0  0  0  0  0
  -43.0562   10.1704   23.7013 H   0  0  0  0  0  0  0  0  0  0  0  0
  -44.0335    8.6627   23.8541 H   0  0  0  0  0  0  0  0  0  0  0  0
  -40.7256   10.1527   24.4152 H   0  0  0  0  0  0  0  0  0  0  0  0
  -39.8212    7.4624   24.2706 H   0  0  0  0  0  0  0  0  0  0  0  0
  1  2  1  0
  1  7  1  0
  1  8  1  0
  1  9  1  0
  2  3  1  0
  2 10  1  0
  2 11  1  0
  3  4  2  0
  3  5  1  0
  5  6  1  0
  5 12  1  0
  6 13  1  0
M  END
> <intraLJ>
0.065     

> <intraEL>
2.382     

> <intraDihe>
5.923     

> <interLJ>
0.000     

> <interEJ>
0.000     

> <gridLJ>
-2.607    

> <gridEL>
0.000     

> <totalE>
5.763     

> <LGFE>
-2.607  

> <LE>
-0.434  

> <SMILES>
CCC(=O)NO

> <atom.dprop.GFE>
-0.17 -0.21 0 -0.52 -0.58 -1.1 0 0 0 0 0 0 0

> <atom.prop.CLASS>
PRPC PRPC NCLA GENA GEND MEOO NCLA NCLA NCLA NCLA NCLA NCLA NCLA

$$$$
13
     RDKit          3D

 13 12  0  0  0  0  0  0  0  0999 V2000
   22.9625    0.1971  -18.1471 C   0  0  0  0  0  0  0  0  0  0  0  0
   23.3245    1.5128  -18.8688 C   0  0  0  0  0  0  0  0  0  0  0  0
   23.7001    1.1646  -20.2941 C   0  0  0  0  0  0  0  0  0  0  0  0
   24.8569    1.0931  -20.6776 O   0  0  0  0  0  0  0  0  0  0  0  0
   22.7019    0.9001  -21.1754 N   0  0  0  0  0  0  0  0  0  0  0  0
   23.0080    0.5592  -22.5085 O   0  0  0  0  0  0  0  0  0  0  0  0
   22.7134    0.4315  -17.1116 H   0  0  0  0  0  0  0  0  0  0  0  0
   23.8275   -0.4688  -18.1821 H   0  0  0  0  0  0  0  0  0  0  0  0
   22.1080   -0.2660  -18.6449 H   0  0  0  0  0  0  0  0  0  0  0  0
   24.1893    1.9508  -18.3893 H   0  0  0  0  0  0  0  0  0  0  0  0
   22.4658    2.1698  -18.8722 H   0  0  0  0  0  0  0  0  0  0  0  0
   21.7061    0.9306  -20.9028 H   0  0  0  0  0  0  0  0  0  0  0  0
   23.9956    0.5745  -22.5484 H   0  0  0  0  0  0  0  0  0  0  0  0
  1  2  1  0
  1  7  1  0
  1  8  1  0
  1  9  1  0
  2  3  1  0
  2 10  1  0
  2 11  1  0
  3  4  2  0
  3  5  1  0
  5  6  1  0
  5 12  1  0
  6 13  1  0
M  END
> <intraLJ>
0.052     

> <intraEL>
2.368     

> <intraDihe>
5.919     

> <interLJ>
0.000     

> <interEJ>
0.000     

> <gridLJ>
-2.564    

> <gridEL>
0.000     

> <totalE>
5.776     

> <LGFE>
-2.564  

> <LE>
-0.427  

> <SMILES>
CCC(=O)NO

> <atom.dprop.GFE>
-0.36 -0.34 0 -0.4 -0.63 -0.84 0 0 0 0 0 0 0

> <atom.prop.CLASS>
PRPC PRPC NCLA GENA GEND MEOO NCLA NCLA NCLA NCLA NCLA NCLA NCLA

$$$$
13
     RDKit          3D

 13 12  0  0  0  0  0  0  0  0999 V2000
    0.0025   -5.8134   -4.3552 C   0  0  0  0  0  0  0  0  0  0  0  0
    0.0252   -5.5141   -2.8410 C   0  0  0  0  0  0  0  0  0  0  0  0
   -1.2181   -6.1301   -2.2340 C   0  0  0  0  0  0  0  0  0  0  0  0
   -1.2007   -7.1727   -1.5990 O   0  0  0  0  0  0  0  0  0  0  0  0
   -2.3991   -5.4783   -2.3877 N   0  0  0  0  0  0  0  0  0  0  0  0
   -3.5782   -6.0103   -1.8276 O   0  0  0  0  0  0  0  0  0  0  0  0
    0.8812   -5.3536   -4.8087 H   0  0  0  0  0  0  0  0  0  0  0  0
   -0.9065   -5.3835   -4.7816 H   0  0  0  0  0  0  0  0  0  0  0  0
    0.0194   -6.8940   -4.5114 H   0  0  0  0  0  0  0  0  0  0  0  0
   -0.0216   -4.4438   -2.6929 H   0  0  0  0  0  0  0  0  0  0  0  0
    0.9034   -5.9635   -2.3982 H   0  0  0  0  0  0  0  0  0  0  0  0
   -2.4707   -4.5854   -2.9019 H   0  0  0  0  0  0  0  0  0  0  0  0
   -3.2868   -6.8411   -1.3781 H   0  0  0  0  0  0  0  0  0  0  0  0
  1  2  1  0
  1  7  1  0
  1  8  1  0
  1  9  1  0
  2  3  1  0
  2 10  1  0
  2 11  1  0
  3  4  2  0
  3  5  1  0
  5  6  1  0
  5 12  1  0
  6 13  1  0
M  END
> <intraLJ>
0.080     

> <intraEL>
2.378     

> <intraDihe>
5.910     

> <interLJ>
0.000     

> <interEJ>
0.000     

> <gridLJ>
-2.558    

> <gridEL>
0.000     

> <totalE>
5.811     

> <LGFE>
-2.558  

> <LE>
-0.426  

> <SMILES>
CCC(=O)NO

> <atom.dprop.GFE>
-0.18 -0.04 0 -0.32 -0.71 -1.3 0 0 0 0 0 0 0

> <atom.prop.CLASS>
PRPC PRPC NCLA GENA GEND MEOO NCLA NCLA NCLA NCLA NCLA NCLA NCLA

$$$$
13
     RDKit          3D

 13 12  0  0  0  0  0  0  0  0999 V2000
   -8.6857   -3.8592   12.3055 C   0  0  0  0  0  0  0  0  0  0  0  0
   -8.1462   -5.2315   11.8486 C   0  0  0  0  0  0  0  0  0  0  0  0
   -9.0977   -5.7718   10.8015 C   0  0  0  0  0  0  0  0  0  0  0  0
  -10.0627   -5.1448   10.3941 O   0  0  0  0  0  0  0  0  0  0  0  0
   -8.8493   -7.0005   10.2803 N   0  0  0  0  0  0  0  0  0  0  0  0
   -9.7026   -7.5355    9.2939 O   0  0  0  0  0  0  0  0  0  0  0  0
   -8.0219   -3.4699   13.0782 H   0  0  0  0  0  0  0  0  0  0  0  0
   -9.6905   -3.9973   12.7105 H   0  0  0  0  0  0  0  0  0  0  0  0
   -8.7119   -3.1779   11.4525 H   0  0  0  0  0  0  0  0  0  0  0  0
   -8.1508   -5.9097   12.6910 H   0  0  0  0  0  0  0  0  0  0  0  0
   -7.1644   -5.1057   11.4133 H   0  0  0  0  0  0  0  0  0  0  0  0
   -8.0395   -7.5692   10.5761 H   0  0  0  0  0  0  0  0  0  0  0  0
  -10.3874   -6.8368    9.1523 H   0  0  0  0  0  0  0  0  0  0  0  0
  1  2  1  0
  1  7  1  0
  1  8  1  0
  1  9  1  0
  2  3  1  0
  2 10  1  0
  2 11  1  0
  3  4  2  0
  3  5  1  0
  5  6  1  0
  5 12  1  0
  6 13  1  0
M  END
> <intraLJ>
0.448     

> <intraEL>
2.510     

> <intraDihe>
5.853     

> <interLJ>
0.000     

> <interEJ>
0.000     

> <gridLJ>
-2.541    

> <gridEL>
0.000     

> <totalE>
6.269     

> <LGFE>
-2.541  

> <LE>
-0.424  

> <SMILES>
CCC(=O)NO

> <atom.dprop.GFE>
-0.26 -0.16 0 -0.83 -0.62 -0.67 0 0 0 0 0 0 0

> <atom.prop.CLASS>
PRPC PRPC NCLA GENA GEND MEOO NCLA NCLA NCLA NCLA NCLA NCLA NCLA

$$$$
13
     RDKit          3D

 13 12  0  0  0  0  0  0  0  0999 V2000
   22.7515   -2.0103  -12.0442 C   0  0  0  0  0  0  0  0  0  0  0  0
   21.5220   -1.8883  -11.1187 C   0  0  0  0  0  0  0  0  0  0  0  0
   20.4635   -2.8399  -11.6360 C   0  0  0  0  0  0  0  0  0  0  0  0
   20.0666   -3.8023  -10.9983 O   0  0  0  0  0  0  0  0  0  0  0  0
   19.9193   -2.5946  -12.8554 N   0  0  0  0  0  0  0  0  0  0  0  0
   18.9217   -3.4480  -13.3688 O   0  0  0  0  0  0  0  0  0  0  0  0
   23.5129   -1.3113  -11.6965 H   0  0  0  0  0  0  0  0  0  0  0  0
   22.4476   -1.7563  -13.0621 H   0  0  0  0  0  0  0  0  0  0  0  0
   23.1330   -3.0327  -12.0071 H   0  0  0  0  0  0  0  0  0  0  0  0
   21.1316   -0.8818  -11.1828 H   0  0  0  0  0  0  0  0  0  0  0  0
   21.7995   -2.1700  -10.1123 H   0  0  0  0  0  0  0  0  0  0  0  0
   20.2055   -1.7870  -13.4322 H   0  0  0  0  0  0  0  0  0  0  0  0
   18.7924   -4.1304  -12.6654 H   0  0  0  0  0  0  0  0  0  0  0  0
  1  2  1  0
  1  7  1  0
  1  8  1  0
  1  9  1  0
  2  3  1  0
  2 10  1  0
  2 11  1  0
  3  4  2  0
  3  5  1  0
  5  6  1  0
  5 12  1  0
  6 13  1  0
M  END
> <intraLJ>
0.240     

> <intraEL>
2.373     

> <intraDihe>
5.855     

> <interLJ>
0.000     

> <interEJ>
0.000     

> <gridLJ>
-2.482    

> <gridEL>
0.000     

> <totalE>
5.987     

> <LGFE>
-2.482  

> <LE>
-0.414  

> <SMILES>
CCC(=O)NO

> <atom.dprop.GFE>
-0.19 -0.25 0 -0.69 -0.84 -0.51 0 0 0 0 0 0 0

> <atom.prop.CLASS>
PRPC PRPC NCLA GENA GEND MEOO NCLA NCLA NCLA NCLA NCLA NCLA NCLA

$$$$
13
     RDKit          3D

 13 12  0  0  0  0  0  0  0  0999 V2000
  -40.9842   -0.0746   27.3371 C   0  0  0  0  0  0  0  0  0  0  0  0
  -40.0643   -0.9730   28.1912 C   0  0  0  0  0  0  0  0  0  0  0  0
  -39.3057   -1.8812   27.2460 C   0  0  0  0  0  0  0  0  0  0  0  0
  -38.1420   -1.6889   26.9308 O   0  0  0  0  0  0  0  0  0  0  0  0
  -39.9468   -2.9687   26.7465 N   0  0  0  0  0  0  0  0  0  0  0  0
  -39.2734   -3.8472   25.8737 O   0  0  0  0  0  0  0  0  0  0  0  0
  -41.5548    0.5682   28.0083 H   0  0  0  0  0  0  0  0  0  0  0  0
  -41.6613   -0.7130   26.7654 H   0  0  0  0  0  0  0  0  0  0  0  0
  -40.3751    0.5307   26.6626 H   0  0  0  0  0  0  0  0  0  0  0  0
  -40.6749   -1.5907   28.8355 H   0  0  0  0  0  0  0  0  0  0  0  0
  -39.3645   -0.3558   28.7377 H   0  0  0  0  0  0  0  0  0  0  0  0
  -40.9259   -3.1893   26.9906 H   0  0  0  0  0  0  0  0  0  0  0  0
  -38.3657   -3.4651   25.7882 H   0  0  0  0  0  0  0  0  0  0  0  0
  1  2  1  0
  1  7  1  0
  1  8  1  0
  1  9  1  0
  2  3  1  0
  2 10  1  0
  2 11  1  0
  3  4  2  0
  3  5  1  0
  5  6  1  0
  5 12  1  0
  6 13  1  0
M  END
> <intraLJ>
0.075     

> <intraEL>
2.379     

> <intraDihe>
5.914     

> <interLJ>
0.000     

> <interEJ>
0.000     

> <gridLJ>
-2.419    

> <gridEL>
0.000     

> <totalE>
5.950     

> <LGFE>
-2.419  

> <LE>
-0.403  

> <SMILES>
CCC(=O)NO

> <atom.dprop.GFE>
-0.41 -0.43 0 -0.67 -0.48 -0.44 0 0 0 0 0 0 0

> <atom.prop.CLASS>
PRPC PRPC NCLA GENA GEND MEOO NCLA NCLA NCLA NCLA NCLA NCLA NCLA

$$$$
13
     RDKit          3D

 13 12  0  0  0  0  0  0  0  0999 V2000
   18.1251   15.2634   -5.4761 C   0  0  0  0  0  0  0  0  0  0  0  0
   17.9087   16.7626   -5.1785 C   0  0  0  0  0  0  0  0  0  0  0  0
   16.4521   16.9501   -4.8084 C   0  0  0  0  0  0  0  0  0  0  0  0
   16.0719   17.0881   -3.6565 O   0  0  0  0  0  0  0  0  0  0  0  0
   15.5345   16.9871   -5.8083 N   0  0  0  0  0  0  0  0  0  0  0  0
   14.1697   17.1729   -5.5086 O   0  0  0  0  0  0  0  0  0  0  0  0
   19.1658   15.1186   -5.7680 H   0  0  0  0  0  0  0  0  0  0  0  0
   17.4632   14.9717   -6.2944 H   0  0  0  0  0  0  0  0  0  0  0  0
   17.8999   14.6800   -4.5809 H   0  0  0  0  0  0  0  0  0  0  0  0
   18.1046   17.3317   -6.0770 H   0  0  0  0  0  0  0  0  0  0  0  0
   18.5331   17.0585   -4.3469 H   0  0  0  0  0  0  0  0  0  0  0  0
   15.8004   16.8911   -6.8017 H   0  0  0  0  0  0  0  0  0  0  0  0
   14.1404   17.2547   -4.5239 H   0  0  0  0  0  0  0  0  0  0  0  0
  1  2  1  0
  1  7  1  0
  1  8  1  0
  1  9  1  0
  2  3  1  0
  2 10  1  0
  2 11  1  0
  3  4  2  0
  3  5  1  0
  5  6  1  0
  5 12  1  0
  6 13  1  0
M  END
> <intraLJ>
0.076     

> <intraEL>
2.379     

> <intraDihe>
5.914     

> <interLJ>
0.000     

> <interEJ>
0.000     

> <gridLJ>
-2.422    

> <gridEL>
0.000     

> <totalE>
5.946     

> <LGFE>
-2.422  

> <LE>
-0.404  

> <SMILES>
CCC(=O)NO

> <atom.dprop.GFE>
-0.59 -0.4 0 -0.61 -0.55 -0.27 0 0 0 0 0 0 0

> <atom.prop.CLASS>
PRPC PRPC NCLA GENA GEND MEOO NCLA NCLA NCLA NCLA NCLA NCLA NCLA

$$$$
13
     RDKit          3D

 13 12  0  0  0  0  0  0  0  0999 V2000
   15.0238    9.1156    4.4309 C   0  0  0  0  0  0  0  0  0  0  0  0
   13.8179    8.4108    5.0882 C   0  0  0  0  0  0  0  0  0  0  0  0
   13.3850    7.2895    4.1668 C   0  0  0  0  0  0  0  0  0  0  0  0
   13.8539    6.1638    4.2246 O   0  0  0  0  0  0  0  0  0  0  0  0
   12.4163    7.5477    3.2513 N   0  0  0  0  0  0  0  0  0  0  0  0
   11.9749    6.5288    2.3829 O   0  0  0  0  0  0  0  0  0  0  0  0
   15.3302    9.9415    5.0737 H   0  0  0  0  0  0  0  0  0  0  0  0
   14.7151    9.4960    3.4547 H   0  0  0  0  0  0  0  0  0  0  0  0
   15.8427    8.4023    4.3174 H   0  0  0  0  0  0  0  0  0  0  0  0
   13.0008    9.1145    5.1706 H   0  0  0  0  0  0  0  0  0  0  0  0
   14.1176    7.9986    6.0419 H   0  0  0  0  0  0  0  0  0  0  0  0
   11.9734    8.4770    3.1675 H   0  0  0  0  0  0  0  0  0  0  0  0
   12.5081    5.7365    2.6381 H   0  0  0  0  0  0  0  0  0  0  0  0
  1  2  1  0
  1  7  1  0
  1  8  1  0
  1  9  1  0
  2  3  1  0
  2 10  1  0
  2 11  1  0
  3  4  2  0
  3  5  1  0
  5  6  1  0
  5 12  1  0
  6 13  1  0
M  END
> <intraLJ>
0.052     

> <intraEL>
2.408     

> <intraDihe>
5.949     

> <interLJ>
0.000     

> <interEJ>
0.000     

> <gridLJ>
-2.428    

> <gridEL>
0.000     

> <totalE>
5.982     

> <LGFE>
-2.428  

> <LE>
-0.405  

> <SMILES>
CCC(=O)NO

> <atom.dprop.GFE>
-0.13 0.033 0 -0.9 -0.81 -0.61 0 0 0 0 0 0 0

> <atom.prop.CLASS>
PRPC PRPC NCLA GENA GEND MEOO NCLA NCLA NCLA NCLA NCLA NCLA NCLA

$$$$
13
     RDKit          3D

 13 12  0  0  0  0  0  0  0  0999 V2000
    7.6900   16.1868   -9.7172 C   0  0  0  0  0  0  0  0  0  0  0  0
    8.9946   15.4522   -9.3412 C   0  0  0  0  0  0  0  0  0  0  0  0
   10.1528   16.2993   -9.8255 C   0  0  0  0  0  0  0  0  0  0  0  0
   10.8398   16.9758   -9.0766 O   0  0  0  0  0  0  0  0  0  0  0  0
   10.4496   16.2853  -11.1502 N   0  0  0  0  0  0  0  0  0  0  0  0
   11.5278   17.0492  -11.6412 O   0  0  0  0  0  0  0  0  0  0  0  0
    6.8470   15.5746   -9.3952 H   0  0  0  0  0  0  0  0  0  0  0  0
    7.6644   16.3181  -10.8012 H   0  0  0  0  0  0  0  0  0  0  0  0
    7.6638   17.1574   -9.2177 H   0  0  0  0  0  0  0  0  0  0  0  0
    9.0281   14.5051   -9.8622 H   0  0  0  0  0  0  0  0  0  0  0  0
    9.0507   15.3450   -8.2666 H   0  0  0  0  0  0  0  0  0  0  0  0
    9.9124   15.7200  -11.8275 H   0  0  0  0  0  0  0  0  0  0  0  0
   11.9040   17.4910  -10.8409 H   0  0  0  0  0  0  0  0  0  0  0  0
  1  2  1  0
  1  7  1  0
  1  8  1  0
  1  9  1  0
  2  3  1  0
  2 10  1  0
  2 11  1  0
  3  4  2  0
  3  5  1  0
  5  6  1  0
  5 12  1  0
  6 13  1  0
M  END
> <intraLJ>
0.089     

> <intraEL>
2.377     

> <intraDihe>
5.904     

> <interLJ>
0.000     

> <interEJ>
0.000     

> <gridLJ>
-2.403    

> <gridEL>
0.000     

> <totalE>
5.966     

> <LGFE>
-2.403  

> <LE>
-0.401  

> <SMILES>
CCC(=O)NO

> <atom.dprop.GFE>
-0.27 -0.34 0 -0.68 -0.87 -0.25 0 0 0 0 0 0 0

> <atom.prop.CLASS>
PRPC PRPC NCLA GENA GEND MEOO NCLA NCLA NCLA NCLA NCLA NCLA NCLA

$$$$
13
     RDKit          3D

 13 12  0  0  0  0  0  0  0  0999 V2000
  -26.3813  -17.6566   23.1368 C   0  0  0  0  0  0  0  0  0  0  0  0
  -26.6159  -16.3290   22.3850 C   0  0  0  0  0  0  0  0  0  0  0  0
  -25.3379  -15.5211   22.4731 C   0  0  0  0  0  0  0  0  0  0  0  0
  -25.1926  -14.5904   23.2497 O   0  0  0  0  0  0  0  0  0  0  0  0
  -24.3029  -15.8654   21.6649 N   0  0  0  0  0  0  0  0  0  0  0  0
  -23.0909  -15.1479   21.7240 O   0  0  0  0  0  0  0  0  0  0  0  0
  -27.3033  -18.2380   23.1016 H   0  0  0  0  0  0  0  0  0  0  0  0
  -26.1221  -17.4290   24.1731 H   0  0  0  0  0  0  0  0  0  0  0  0
  -25.5700  -18.2070   22.6559 H   0  0  0  0  0  0  0  0  0  0  0  0
  -27.4000  -15.7758   22.8837 H   0  0  0  0  0  0  0  0  0  0  0  0
  -26.8403  -16.5371   21.3479 H   0  0  0  0  0  0  0  0  0  0  0  0
  -24.3640  -16.6530   20.9995 H   0  0  0  0  0  0  0  0  0  0  0  0
  -23.2416  -14.4627   22.4204 H   0  0  0  0  0  0  0  0  0  0  0  0
  1  2  1  0
  1  7  1  0
  1  8  1  0
  1  9  1  0
  2  3  1  0
  2 10  1  0
  2 11  1  0
  3  4  2  0
  3  5  1  0
  5  6  1  0
  5 12  1  0
  6 13  1  0
M  END
> <intraLJ>
0.056     

> <intraEL>
2.367     

> <intraDihe>
5.916     

> <interLJ>
0.000     

> <interEJ>
0.000     

> <gridLJ>
-2.380    

> <gridEL>
0.000     

> <totalE>
5.960     

> <LGFE>
-2.380  

> <LE>
-0.397  

> <SMILES>
CCC(=O)NO

> <atom.dprop.GFE>
-0.16 -0.19 0 -0.62 -0.84 -0.56 0 0 0 0 0 0 0

> <atom.prop.CLASS>
PRPC PRPC NCLA GENA GEND MEOO NCLA NCLA NCLA NCLA NCLA NCLA NCLA

$$$$
13
     RDKit          3D

 13 12  0  0  0  0  0  0  0  0999 V2000
  -30.0644   13.1720   16.4791 C   0  0  0  0  0  0  0  0  0  0  0  0
  -28.8504   14.1195   16.5868 C   0  0  0  0  0  0  0  0  0  0  0  0
  -28.2878   13.9853   17.9865 C   0  0  0  0  0  0  0  0  0  0  0  0
  -27.2808   13.3428   18.2389 O   0  0  0  0  0  0  0  0  0  0  0  0
  -28.9238   14.6280   18.9992 N   0  0  0  0  0  0  0  0  0  0  0  0
  -28.4261   14.5401   20.3151 O   0  0  0  0  0  0  0  0  0  0  0  0
  -30.4940   13.2774   15.4823 H   0  0  0  0  0  0  0  0  0  0  0  0
  -30.7985   13.4593   17.2350 H   0  0  0  0  0  0  0  0  0  0  0  0
  -29.7366   12.1432   16.6416 H   0  0  0  0  0  0  0  0  0  0  0  0
  -29.1865   15.1388   16.4544 H   0  0  0  0  0  0  0  0  0  0  0  0
  -28.0993   13.8258   15.8665 H   0  0  0  0  0  0  0  0  0  0  0  0
  -29.7707   15.1979   18.8420 H   0  0  0  0  0  0  0  0  0  0  0  0
  -27.6211   13.9715   20.2388 H   0  0  0  0  0  0  0  0  0  0  0  0
  1  2  1  0
  1  7  1  0
  1  8  1  0
  1  9  1  0
  2  3  1  0
  2 10  1  0
  2 11  1  0
  3  4  2  0
  3  5  1  0
  5  6  1  0
  5 12  1  0
  6 13  1  0
M  END
> <intraLJ>
0.078     

> <intraEL>
2.379     

> <intraDihe>
5.912     

> <interLJ>
0.000     

> <interEJ>
0.000     

> <gridLJ>
-2.328    

> <gridEL>
0.000     

> <totalE>
6.041     

> <LGFE>
-2.328  

> <LE>
-0.388  

> <SMILES>
CCC(=O)NO

> <atom.dprop.GFE>
-0.32 -0.39 0 -0.79 -0.6 -0.23 0 0 0 0 0 0 0

> <atom.prop.CLASS>
PRPC PRPC NCLA GENA GEND MEOO NCLA NCLA NCLA NCLA NCLA NCLA NCLA

$$$$
13
     RDKit          3D

 13 12  0  0  0  0  0  0  0  0999 V2000
  -28.7700    2.1717    8.3167 C   0  0  0  0  0  0  0  0  0  0  0  0
  -28.7940    2.8488    6.9296 C   0  0  0  0  0  0  0  0  0  0  0  0
  -27.6476    3.8373    6.8829 C   0  0  0  0  0  0  0  0  0  0  0  0
  -26.5598    3.5705    6.3971 O   0  0  0  0  0  0  0  0  0  0  0  0
  -27.8509    5.0817    7.3861 N   0  0  0  0  0  0  0  0  0  0  0  0
  -26.8145    6.0365    7.3507 O   0  0  0  0  0  0  0  0  0  0  0  0
  -29.6066    1.4743    8.3721 H   0  0  0  0  0  0  0  0  0  0  0  0
  -28.8749    2.9432    9.0827 H   0  0  0  0  0  0  0  0  0  0  0  0
  -27.8256    1.6385    8.4434 H   0  0  0  0  0  0  0  0  0  0  0  0
  -29.7188    3.3992    6.8225 H   0  0  0  0  0  0  0  0  0  0  0  0
  -28.6567    2.1006    6.1612 H   0  0  0  0  0  0  0  0  0  0  0  0
  -28.7551    5.3677    7.7953 H   0  0  0  0  0  0  0  0  0  0  0  0
  -26.0604    5.5687    6.9152 H   0  0  0  0  0  0  0  0  0  0  0  0
  1  2  1  0
  1  7  1  0
  1  8  1  0
  1  9  1  0
  2  3  1  0
  2 10  1  0
  2 11  1  0
  3  4  2  0
  3  5  1  0
  5  6  1  0
  5 12  1  0
  6 13  1  0
M  END
> <intraLJ>
0.051     

> <intraEL>
2.391     

> <intraDihe>
5.940     

> <interLJ>
0.000     

> <interEJ>
0.000     

> <gridLJ>
-2.289    

> <gridEL>
0.000     

> <totalE>
6.094     

> <LGFE>
-2.289  

> <LE>
-0.381  

> <SMILES>
CCC(=O)NO

> <atom.dprop.GFE>
-0.24 -0.24 0 -0.86 -0.49 -0.46 0 0 0 0 0 0 0

> <atom.prop.CLASS>
PRPC PRPC NCLA GENA GEND MEOO NCLA NCLA NCLA NCLA NCLA NCLA NCLA

$$$$
13
     RDKit          3D

 13 12  0  0  0  0  0  0  0  0999 V2000
   17.7944   -5.2979  -24.7214 C   0  0  0  0  0  0  0  0  0  0  0  0
   17.8465   -6.4982  -23.7521 C   0  0  0  0  0  0  0  0  0  0  0  0
   18.8071   -6.1439  -22.6361 C   0  0  0  0  0  0  0  0  0  0  0  0
   19.9612   -6.5409  -22.6020 O   0  0  0  0  0  0  0  0  0  0  0  0
   18.3663   -5.3304  -21.6426 N   0  0  0  0  0  0  0  0  0  0  0  0
   19.2318   -4.9654  -20.5916 O   0  0  0  0  0  0  0  0  0  0  0  0
   17.1238   -5.5502  -25.5436 H   0  0  0  0  0  0  0  0  0  0  0  0
   18.8012   -5.1143  -25.1028 H   0  0  0  0  0  0  0  0  0  0  0  0
   17.4249   -4.4186  -24.1898 H   0  0  0  0  0  0  0  0  0  0  0  0
   18.2410   -7.3576  -24.2769 H   0  0  0  0  0  0  0  0  0  0  0  0
   16.8621   -6.6709  -23.3394 H   0  0  0  0  0  0  0  0  0  0  0  0
   17.4051   -4.9527  -21.6279 H   0  0  0  0  0  0  0  0  0  0  0  0
   20.0858   -5.4151  -20.8054 H   0  0  0  0  0  0  0  0  0  0  0  0
  1  2  1  0
  1  7  1  0
  1  8  1  0
  1  9  1  0
  2  3  1  0
  2 10  1  0
  2 11  1  0
  3  4  2  0
  3  5  1  0
  5  6  1  0
  5 12  1  0
  6 13  1  0
M  END
> <intraLJ>
0.046     

> <intraEL>
2.370     

> <intraDihe>
5.925     

> <interLJ>
0.000     

> <interEJ>
0.000     

> <gridLJ>
-2.285    

> <gridEL>
0.000     

> <totalE>
6.055     

> <LGFE>
-2.285  

> <LE>
-0.381  

> <SMILES>
CCC(=O)NO

> <atom.dprop.GFE>
-0.4 -0.34 0 -0.6 -0.62 -0.32 0 0 0 0 0 0 0

> <atom.prop.CLASS>
PRPC PRPC NCLA GENA GEND MEOO NCLA NCLA NCLA NCLA NCLA NCLA NCLA

$$$$
13
     RDKit          3D

 13 12  0  0  0  0  0  0  0  0999 V2000
   10.8691    6.6824    8.3707 C   0  0  0  0  0  0  0  0  0  0  0  0
   12.2346    6.1921    7.8434 C   0  0  0  0  0  0  0  0  0  0  0  0
   12.1065    6.0047    6.3460 C   0  0  0  0  0  0  0  0  0  0  0  0
   11.9646    4.9106    5.8232 O   0  0  0  0  0  0  0  0  0  0  0  0
   12.1296    7.1084    5.5558 N   0  0  0  0  0  0  0  0  0  0  0  0
   12.0004    6.9798    4.1580 O   0  0  0  0  0  0  0  0  0  0  0  0
   10.9410    6.7980    9.4527 H   0  0  0  0  0  0  0  0  0  0  0  0
   10.1118    5.9352    8.1239 H   0  0  0  0  0  0  0  0  0  0  0  0
   10.6230    7.6388    7.9049 H   0  0  0  0  0  0  0  0  0  0  0  0
   12.4583    5.2310    8.2859 H   0  0  0  0  0  0  0  0  0  0  0  0
   12.9895    6.9380    8.0503 H   0  0  0  0  0  0  0  0  0  0  0  0
   12.2318    8.0600    5.9443 H   0  0  0  0  0  0  0  0  0  0  0  0
   11.9018    6.0080    4.0059 H   0  0  0  0  0  0  0  0  0  0  0  0
  1  2  1  0
  1  7  1  0
  1  8  1  0
  1  9  1  0
  2  3  1  0
  2 10  1  0
  2 11  1  0
  3  4  2  0
  3  5  1  0
  5  6  1  0
  5 12  1  0
  6 13  1  0
M  END
> <intraLJ>
0.056     

> <intraEL>
2.367     

> <intraDihe>
5.916     

> <interLJ>
0.000     

> <interEJ>
0.000     

> <gridLJ>
-2.275    

> <gridEL>
0.000     

> <totalE>
6.065     

> <LGFE>
-2.275  

> <LE>
-0.379  

> <SMILES>
CCC(=O)NO

> <atom.dprop.GFE>
0.02 0.074 0 -0.73 -0.65 -0.99 0 0 0 0 0 0 0

> <atom.prop.CLASS>
PRPC PRPC NCLA GENA GEND MEOO NCLA NCLA NCLA NCLA NCLA NCLA NCLA

$$$$
13
     RDKit          3D

 13 12  0  0  0  0  0  0  0  0999 V2000
   22.9093   14.5286   -6.6044 C   0  0  0  0  0  0  0  0  0  0  0  0
   24.4492   14.4291   -6.6445 C   0  0  0  0  0  0  0  0  0  0  0  0
   24.9073   14.9585   -7.9875 C   0  0  0  0  0  0  0  0  0  0  0  0
   25.4000   16.0661   -8.1319 O   0  0  0  0  0  0  0  0  0  0  0  0
   24.7817   14.1526   -9.0728 N   0  0  0  0  0  0  0  0  0  0  0  0
   25.2075   14.6013  -10.3394 O   0  0  0  0  0  0  0  0  0  0  0  0
   22.5647   14.1274   -5.6507 H   0  0  0  0  0  0  0  0  0  0  0  0
   22.5007   13.9389   -7.4278 H   0  0  0  0  0  0  0  0  0  0  0  0
   22.6110   15.5743   -6.7033 H   0  0  0  0  0  0  0  0  0  0  0  0
   24.7367   13.3888   -6.5758 H   0  0  0  0  0  0  0  0  0  0  0  0
   24.8701   15.0363   -5.8549 H   0  0  0  0  0  0  0  0  0  0  0  0
   24.3862   13.2007   -9.0073 H   0  0  0  0  0  0  0  0  0  0  0  0
   25.5581   15.5110  -10.1758 H   0  0  0  0  0  0  0  0  0  0  0  0
  1  2  1  0
  1  7  1  0
  1  8  1  0
  1  9  1  0
  2  3  1  0
  2 10  1  0
  2 11  1  0
  3  4  2  0
  3  5  1  0
  5  6  1  0
  5 12  1  0
  6 13  1  0
M  END
> <intraLJ>
0.081     

> <intraEL>
2.378     

> <intraDihe>
5.909     

> <interLJ>
0.000     

> <interEJ>
0.000     

> <gridLJ>
-2.260    

> <gridEL>
0.000     

> <totalE>
6.109     

> <LGFE>
-2.260  

> <LE>
-0.377  

> <SMILES>
CCC(=O)NO

> <atom.dprop.GFE>
-0.41 -0.22 0 -0.66 -0.56 -0.42 0 0 0 0 0 0 0

> <atom.prop.CLASS>
PRPC PRPC NCLA GENA GEND MEOO NCLA NCLA NCLA NCLA NCLA NCLA NCLA

$$$$
13
     RDKit          3D

 13 12  0  0  0  0  0  0  0  0999 V2000
  -28.1173   17.2008   27.0521 C   0  0  0  0  0  0  0  0  0  0  0  0
  -29.1872   16.1781   26.6136 C   0  0  0  0  0  0  0  0  0  0  0  0
  -28.6285   15.4078   25.4354 C   0  0  0  0  0  0  0  0  0  0  0  0
  -28.1802   14.2765   25.5338 O   0  0  0  0  0  0  0  0  0  0  0  0
  -28.6493   15.9985   24.2132 N   0  0  0  0  0  0  0  0  0  0  0  0
  -28.1510   15.3115   23.0877 O   0  0  0  0  0  0  0  0  0  0  0  0
  -28.5173   17.7794   27.8854 H   0  0  0  0  0  0  0  0  0  0  0  0
  -27.8999   17.8604   26.2091 H   0  0  0  0  0  0  0  0  0  0  0  0
  -27.2139   16.6705   27.3604 H   0  0  0  0  0  0  0  0  0  0  0  0
  -30.0681   16.7106   26.2817 H   0  0  0  0  0  0  0  0  0  0  0  0
  -29.3884   15.4958   27.4280 H   0  0  0  0  0  0  0  0  0  0  0  0
  -29.0304   16.9474   24.0682 H   0  0  0  0  0  0  0  0  0  0  0  0
  -27.8560   14.4367   23.4410 H   0  0  0  0  0  0  0  0  0  0  0  0
  1  2  1  0
  1  7  1  0
  1  8  1  0
  1  9  1  0
  2  3  1  0
  2 10  1  0
  2 11  1  0
  3  4  2  0
  3  5  1  0
  5  6  1  0
  5 12  1  0
  6 13  1  0
M  END
> <intraLJ>
0.076     

> <intraEL>
2.379     

> <intraDihe>
5.913     

> <interLJ>
0.000     

> <interEJ>
0.000     

> <gridLJ>
-2.265    

> <gridEL>
0.000     

> <totalE>
6.103     

> <LGFE>
-2.265  

> <LE>
-0.378  

> <SMILES>
CCC(=O)NO

> <atom.dprop.GFE>
-0.16 -0.28 0 -1 -0.59 -0.23 0 0 0 0 0 0 0

> <atom.prop.CLASS>
PRPC PRPC NCLA GENA GEND MEOO NCLA NCLA NCLA NCLA NCLA NCLA NCLA

$$$$
13
     RDKit          3D

 13 12  0  0  0  0  0  0  0  0999 V2000
   10.7818   -5.3780  -10.6700 C   0  0  0  0  0  0  0  0  0  0  0  0
   10.1148   -5.0097  -12.0126 C   0  0  0  0  0  0  0  0  0  0  0  0
   10.9211   -5.6597  -13.1176 C   0  0  0  0  0  0  0  0  0  0  0  0
   10.7184   -6.7994  -13.5056 O   0  0  0  0  0  0  0  0  0  0  0  0
   11.8980   -4.9302  -13.7148 N   0  0  0  0  0  0  0  0  0  0  0  0
   12.6635   -5.4925  -14.7564 O   0  0  0  0  0  0  0  0  0  0  0  0
   10.2242   -4.8954   -9.8666 H   0  0  0  0  0  0  0  0  0  0  0  0
   11.8116   -5.0143  -10.6814 H   0  0  0  0  0  0  0  0  0  0  0  0
   10.7648   -6.4623  -10.5423 H   0  0  0  0  0  0  0  0  0  0  0  0
   10.1615   -3.9376  -12.1465 H   0  0  0  0  0  0  0  0  0  0  0  0
    9.1041   -5.3937  -12.0299 H   0  0  0  0  0  0  0  0  0  0  0  0
   12.1034   -3.9565  -13.4381 H   0  0  0  0  0  0  0  0  0  0  0  0
   12.2997   -6.4049  -14.8675 H   0  0  0  0  0  0  0  0  0  0  0  0
  1  2  1  0
  1  7  1  0
  1  8  1  0
  1  9  1  0
  2  3  1  0
  2 10  1  0
  2 11  1  0
  3  4  2  0
  3  5  1  0
  5  6  1  0
  5 12  1  0
  6 13  1  0
M  END
> <intraLJ>
0.054     

> <intraEL>
2.411     

> <intraDihe>
5.948     

> <interLJ>
0.000     

> <interEJ>
0.000     

> <gridLJ>
-2.230    

> <gridEL>
0.000     

> <totalE>
6.184     

> <LGFE>
-2.230  

> <LE>
-0.372  

> <SMILES>
CCC(=O)NO

> <atom.dprop.GFE>
-0.28 -0.32 0 -0.56 -0.67 -0.41 0 0 0 0 0 0 0

> <atom.prop.CLASS>
PRPC PRPC NCLA GENA GEND MEOO NCLA NCLA NCLA NCLA NCLA NCLA NCLA

$$$$
13
     RDKit          3D

 13 12  0  0  0  0  0  0  0  0999 V2000
  -28.0784   -4.5073   31.0729 C   0  0  0  0  0  0  0  0  0  0  0  0
  -26.7350   -4.8112   30.3758 C   0  0  0  0  0  0  0  0  0  0  0  0
  -25.6315   -4.2313   31.2359 C   0  0  0  0  0  0  0  0  0  0  0  0
  -25.2126   -4.7841   32.2407 O   0  0  0  0  0  0  0  0  0  0  0  0
  -25.0718   -3.0543   30.8561 N   0  0  0  0  0  0  0  0  0  0  0  0
  -24.0330   -2.4862   31.6211 O   0  0  0  0  0  0  0  0  0  0  0  0
  -28.8837   -4.8988   30.4505 H   0  0  0  0  0  0  0  0  0  0  0  0
  -28.1792   -3.4248   31.1778 H   0  0  0  0  0  0  0  0  0  0  0  0
  -28.0937   -4.9857   32.0544 H   0  0  0  0  0  0  0  0  0  0  0  0
  -26.7145   -4.3103   29.4175 H   0  0  0  0  0  0  0  0  0  0  0  0
  -26.6050   -5.8816   30.2954 H   0  0  0  0  0  0  0  0  0  0  0  0
  -25.3757   -2.5501   30.0074 H   0  0  0  0  0  0  0  0  0  0  0  0
  -23.8930   -3.1245   32.3629 H   0  0  0  0  0  0  0  0  0  0  0  0
  1  2  1  0
  1  7  1  0
  1  8  1  0
  1  9  1  0
  2  3  1  0
  2 10  1  0
  2 11  1  0
  3  4  2  0
  3  5  1  0
  5  6  1  0
  5 12  1  0
  6 13  1  0
M  END
> <intraLJ>
0.080     

> <intraEL>
2.432     

> <intraDihe>
5.922     

> <interLJ>
0.000     

> <interEJ>
0.000     

> <gridLJ>
-2.240    

> <gridEL>
0.000     

> <totalE>
6.193     

> <LGFE>
-2.240  

> <LE>
-0.373  

> <SMILES>
CCC(=O)NO

> <atom.dprop.GFE>
-0.29 -0.32 0 -0.71 -0.51 -0.41 0 0 0 0 0 0 0

> <atom.prop.CLASS>
PRPC PRPC NCLA GENA GEND MEOO NCLA NCLA NCLA NCLA NCLA NCLA NCLA

$$$$
13
     RDKit          3D

 13 12  0  0  0  0  0  0  0  0999 V2000
   17.9811    5.7340  -49.1736 C   0  0  0  0  0  0  0  0  0  0  0  0
   18.3267    4.6063  -50.1694 C   0  0  0  0  0  0  0  0  0  0  0  0
   18.6898    3.3777  -49.3616 C   0  0  0  0  0  0  0  0  0  0  0  0
   17.9216    2.4444  -49.1905 O   0  0  0  0  0  0  0  0  0  0  0  0
   19.9342    3.3068  -48.8237 N   0  0  0  0  0  0  0  0  0  0  0  0
   20.3175    2.1752  -48.0757 O   0  0  0  0  0  0  0  0  0  0  0  0
   17.7411    6.6325  -49.7431 H   0  0  0  0  0  0  0  0  0  0  0  0
   18.8502    5.9154  -48.5375 H   0  0  0  0  0  0  0  0  0  0  0  0
   17.1247    5.4321  -48.5671 H   0  0  0  0  0  0  0  0  0  0  0  0
   19.1933    4.8993  -50.7462 H   0  0  0  0  0  0  0  0  0  0  0  0
   17.4634    4.3916  -50.7842 H   0  0  0  0  0  0  0  0  0  0  0  0
   20.6303    4.0596  -48.9488 H   0  0  0  0  0  0  0  0  0  0  0  0
   19.5242    1.5856  -48.0929 H   0  0  0  0  0  0  0  0  0  0  0  0
  1  2  1  0
  1  7  1  0
  1  8  1  0
  1  9  1  0
  2  3  1  0
  2 10  1  0
  2 11  1  0
  3  4  2  0
  3  5  1  0
  5  6  1  0
  5 12  1  0
  6 13  1  0
M  END
> <intraLJ>
0.072     

> <intraEL>
2.380     

> <intraDihe>
5.917     

> <interLJ>
0.000     

> <interEJ>
0.000     

> <gridLJ>
-2.231    

> <gridEL>
0.000     

> <totalE>
6.138     

> <LGFE>
-2.231  

> <LE>
-0.372  

> <SMILES>
CCC(=O)NO

> <atom.dprop.GFE>
-0.32 -0.38 0 -0.56 -0.62 -0.35 0 0 0 0 0 0 0

> <atom.prop.CLASS>
PRPC PRPC NCLA GENA GEND MEOO NCLA NCLA NCLA NCLA NCLA NCLA NCLA

$$$$
13
     RDKit          3D

 13 12  0  0  0  0  0  0  0  0999 V2000
    1.7103    9.4271  -10.5935 C   0  0  0  0  0  0  0  0  0  0  0  0
    1.0073    9.1964   -9.2387 C   0  0  0  0  0  0  0  0  0  0  0  0
    1.5707   10.1997   -8.2540 C   0  0  0  0  0  0  0  0  0  0  0  0
    2.6204   10.0256   -7.6555 O   0  0  0  0  0  0  0  0  0  0  0  0
    0.8842   11.3527   -8.0474 N   0  0  0  0  0  0  0  0  0  0  0  0
    1.3800   12.3192   -7.1490 O   0  0  0  0  0  0  0  0  0  0  0  0
    1.3306    8.6939  -11.3059 H   0  0  0  0  0  0  0  0  0  0  0  0
    2.7853    9.2926  -10.4555 H   0  0  0  0  0  0  0  0  0  0  0  0
    1.4975   10.4391  -10.9445 H   0  0  0  0  0  0  0  0  0  0  0  0
    1.2461    8.2035   -8.8828 H   0  0  0  0  0  0  0  0  0  0  0  0
   -0.0556    9.3599   -9.3520 H   0  0  0  0  0  0  0  0  0  0  0  0
   -0.0011   11.5601   -8.5373 H   0  0  0  0  0  0  0  0  0  0  0  0
    2.2247   11.9333   -6.8102 H   0  0  0  0  0  0  0  0  0  0  0  0
  1  2  1  0
  1  7  1  0
  1  8  1  0
  1  9  1  0
  2  3  1  0
  2 10  1  0
  2 11  1  0
  3  4  2  0
  3  5  1  0
  5  6  1  0
  5 12  1  0
  6 13  1  0
M  END
> <intraLJ>
0.041     

> <intraEL>
2.408     

> <intraDihe>
5.935     

> <interLJ>
0.000     

> <interEJ>
0.000     

> <gridLJ>
-2.179    

> <gridEL>
0.000     

> <totalE>
6.205     

> <LGFE>
-2.179  

> <LE>
-0.363  

> <SMILES>
CCC(=O)NO

> <atom.dprop.GFE>
-0.16 -0.28 0 -0.59 -0.56 -0.59 0 0 0 0 0 0 0

> <atom.prop.CLASS>
PRPC PRPC NCLA GENA GEND MEOO NCLA NCLA NCLA NCLA NCLA NCLA NCLA

$$$$
13
     RDKit          3D

 13 12  0  0  0  0  0  0  0  0999 V2000
   10.8660   -4.7497  -39.1946 C   0  0  0  0  0  0  0  0  0  0  0  0
   10.9270   -3.2659  -38.7732 C   0  0  0  0  0  0  0  0  0  0  0  0
   12.1897   -2.6739  -39.3638 C   0  0  0  0  0  0  0  0  0  0  0  0
   12.1878   -1.9547  -40.3503 O   0  0  0  0  0  0  0  0  0  0  0  0
   13.3718   -2.9407  -38.7519 N   0  0  0  0  0  0  0  0  0  0  0  0
   14.5694   -2.3990  -39.2612 O   0  0  0  0  0  0  0  0  0  0  0  0
    9.9726   -5.1945  -38.7549 H   0  0  0  0  0  0  0  0  0  0  0  0
   11.7586   -5.2552  -38.8198 H   0  0  0  0  0  0  0  0  0  0  0  0
   10.8230   -4.8156  -40.2838 H   0  0  0  0  0  0  0  0  0  0  0  0
   10.9992   -3.2087  -37.6957 H   0  0  0  0  0  0  0  0  0  0  0  0
   10.0656   -2.7441  -39.1668 H   0  0  0  0  0  0  0  0  0  0  0  0
   13.4317   -3.5300  -37.9058 H   0  0  0  0  0  0  0  0  0  0  0  0
   14.2879   -1.8681  -40.0461 H   0  0  0  0  0  0  0  0  0  0  0  0
  1  2  1  0
  1  7  1  0
  1  8  1  0
  1  9  1  0
  2  3  1  0
  2 10  1  0
  2 11  1  0
  3  4  2  0
  3  5  1  0
  5  6  1  0
  5 12  1  0
  6 13  1  0
M  END
> <intraLJ>
0.080     

> <intraEL>
2.378     

> <intraDihe>
5.910     

> <interLJ>
0.000     

> <interEJ>
0.000     

> <gridLJ>
-2.181    

> <gridEL>
0.000     

> <totalE>
6.187     

> <LGFE>
-2.181  

> <LE>
-0.364  

> <SMILES>
CCC(=O)NO

> <atom.dprop.GFE>
-0.24 -0.27 0 -0.68 -0.5 -0.49 0 0 0 0 0 0 0

> <atom.prop.CLASS>
PRPC PRPC NCLA GENA GEND MEOO NCLA NCLA NCLA NCLA NCLA NCLA NCLA

$$$$
13
     RDKit          3D

 13 12  0  0  0  0  0  0  0  0999 V2000
  -28.8065  -16.8864   13.2590 C   0  0  0  0  0  0  0  0  0  0  0  0
  -28.4026  -16.4927   11.8220 C   0  0  0  0  0  0  0  0  0  0  0  0
  -26.8969  -16.3319   11.7976 C   0  0  0  0  0  0  0  0  0  0  0  0
  -26.1472  -17.1680   11.3187 O   0  0  0  0  0  0  0  0  0  0  0  0
  -26.3634  -15.1951   12.3135 N   0  0  0  0  0  0  0  0  0  0  0  0
  -24.9675  -14.9994   12.2990 O   0  0  0  0  0  0  0  0  0  0  0  0
  -29.8922  -16.9816   13.2959 H   0  0  0  0  0  0  0  0  0  0  0  0
  -28.4766  -16.1000   13.9413 H   0  0  0  0  0  0  0  0  0  0  0  0
  -28.3356  -17.8363   13.5203 H   0  0  0  0  0  0  0  0  0  0  0  0
  -28.8481  -15.5373   11.5804 H   0  0  0  0  0  0  0  0  0  0  0  0
  -28.6926  -17.2786   11.1383 H   0  0  0  0  0  0  0  0  0  0  0  0
  -26.9501  -14.4473   12.7177 H   0  0  0  0  0  0  0  0  0  0  0  0
  -24.6073  -15.8112   11.8649 H   0  0  0  0  0  0  0  0  0  0  0  0
  1  2  1  0
  1  7  1  0
  1  8  1  0
  1  9  1  0
  2  3  1  0
  2 10  1  0
  2 11  1  0
  3  4  2  0
  3  5  1  0
  5  6  1  0
  5 12  1  0
  6 13  1  0
M  END
> <intraLJ>
0.083     

> <intraEL>
2.378     

> <intraDihe>
5.908     

> <interLJ>
0.000     

> <interEJ>
0.000     

> <gridLJ>
-2.178    

> <gridEL>
0.000     

> <totalE>
6.190     

> <LGFE>
-2.178  

> <LE>
-0.363  

> <SMILES>
CCC(=O)NO

> <atom.dprop.GFE>
0.071 0.0063 0 -0.88 -0.66 -0.71 0 0 0 0 0 0 0

> <atom.prop.CLASS>
PRPC PRPC NCLA GENA GEND MEOO NCLA NCLA NCLA NCLA NCLA NCLA NCLA

$$$$
13
     RDKit          3D

 13 12  0  0  0  0  0  0  0  0999 V2000
   23.7654   -7.4145  -26.4911 C   0  0  0  0  0  0  0  0  0  0  0  0
   23.0348   -7.2432  -27.8401 C   0  0  0  0  0  0  0  0  0  0  0  0
   22.0359   -6.1161  -27.6798 C   0  0  0  0  0  0  0  0  0  0  0  0
   20.8422   -6.3058  -27.5083 O   0  0  0  0  0  0  0  0  0  0  0  0
   22.4973   -4.8396  -27.7073 N   0  0  0  0  0  0  0  0  0  0  0  0
   21.6033   -3.7613  -27.5489 O   0  0  0  0  0  0  0  0  0  0  0  0
   24.4712   -8.2404  -26.5861 H   0  0  0  0  0  0  0  0  0  0  0  0
   23.0253   -7.6418  -25.7207 H   0  0  0  0  0  0  0  0  0  0  0  0
   24.2954   -6.4918  -26.2463 H   0  0  0  0  0  0  0  0  0  0  0  0
   22.4882   -8.1496  -28.0621 H   0  0  0  0  0  0  0  0  0  0  0  0
   23.7512   -6.9838  -28.6073 H   0  0  0  0  0  0  0  0  0  0  0  0
   23.4986   -4.6201  -27.8341 H   0  0  0  0  0  0  0  0  0  0  0  0
   20.7191   -4.1870  -27.4300 H   0  0  0  0  0  0  0  0  0  0  0  0
  1  2  1  0
  1  7  1  0
  1  8  1  0
  1  9  1  0
  2  3  1  0
  2 10  1  0
  2 11  1  0
  3  4  2  0
  3  5  1  0
  5  6  1  0
  5 12  1  0
  6 13  1  0
M  END
> <intraLJ>
0.054     

> <intraEL>
2.368     

> <intraDihe>
5.918     

> <interLJ>
0.000     

> <interEJ>
0.000     

> <gridLJ>
-2.125    

> <gridEL>
0.000     

> <totalE>
6.215     

> <LGFE>
-2.125  

> <LE>
-0.354  

> <SMILES>
CCC(=O)NO

> <atom.dprop.GFE>
-0.014 -0.0067 0 -0.26 -0.57 -1.3 0 0 0 0 0 0 0

> <atom.prop.CLASS>
PRPC PRPC NCLA GENA GEND MEOO NCLA NCLA NCLA NCLA NCLA NCLA NCLA

$$$$
13
     RDKit          3D

 13 12  0  0  0  0  0  0  0  0999 V2000
   11.0228   17.8528   -1.7920 C   0  0  0  0  0  0  0  0  0  0  0  0
   10.9703   16.7688   -0.6941 C   0  0  0  0  0  0  0  0  0  0  0  0
    9.5157   16.4069   -0.4775 C   0  0  0  0  0  0  0  0  0  0  0  0
    8.8496   16.8550    0.4423 O   0  0  0  0  0  0  0  0  0  0  0  0
    8.9249   15.5625   -1.3613 N   0  0  0  0  0  0  0  0  0  0  0  0
    7.5692   15.2099   -1.2039 O   0  0  0  0  0  0  0  0  0  0  0  0
   12.0643   18.1401   -1.9404 H   0  0  0  0  0  0  0  0  0  0  0  0
   10.4410   18.7148   -1.4584 H   0  0  0  0  0  0  0  0  0  0  0  0
   10.6068   17.4509   -2.7182 H   0  0  0  0  0  0  0  0  0  0  0  0
   11.3561   17.1824    0.2277 H   0  0  0  0  0  0  0  0  0  0  0  0
   11.5141   15.8947   -1.0248 H   0  0  0  0  0  0  0  0  0  0  0  0
    9.4354   15.1651   -2.1665 H   0  0  0  0  0  0  0  0  0  0  0  0
    7.2765   15.7016   -0.3979 H   0  0  0  0  0  0  0  0  0  0  0  0
  1  2  1  0
  1  7  1  0
  1  8  1  0
  1  9  1  0
  2  3  1  0
  2 10  1  0
  2 11  1  0
  3  4  2  0
  3  5  1  0
  5  6  1  0
  5 12  1  0
  6 13  1  0
M  END
> <intraLJ>
0.044     

> <intraEL>
2.371     

> <intraDihe>
5.927     

> <interLJ>
0.000     

> <interEJ>
0.000     

> <gridLJ>
-2.139    

> <gridEL>
0.000     

> <totalE>
6.202     

> <LGFE>
-2.139  

> <LE>
-0.356  

> <SMILES>
CCC(=O)NO

> <atom.dprop.GFE>
-0.28 -0.32 0 -0.6 -0.46 -0.49 0 0 0 0 0 0 0

> <atom.prop.CLASS>
PRPC PRPC NCLA GENA GEND MEOO NCLA NCLA NCLA NCLA NCLA NCLA NCLA

$$$$
13
     RDKit          3D

 13 12  0  0  0  0  0  0  0  0999 V2000
   15.5549   -6.2039   -5.9354 C   0  0  0  0  0  0  0  0  0  0  0  0
   16.7394   -6.4214   -6.9011 C   0  0  0  0  0  0  0  0  0  0  0  0
   17.5007   -5.1154   -6.9931 C   0  0  0  0  0  0  0  0  0  0  0  0
   17.3985   -4.3523   -7.9407 O   0  0  0  0  0  0  0  0  0  0  0  0
   18.3156   -4.7724   -5.9629 N   0  0  0  0  0  0  0  0  0  0  0  0
   19.0325   -3.5593   -6.0024 O   0  0  0  0  0  0  0  0  0  0  0  0
   14.9838   -7.1312   -5.8792 H   0  0  0  0  0  0  0  0  0  0  0  0
   14.9274   -5.4014   -6.3291 H   0  0  0  0  0  0  0  0  0  0  0  0
   15.9368   -5.9359   -4.9481 H   0  0  0  0  0  0  0  0  0  0  0  0
   16.3539   -6.6573   -7.8836 H   0  0  0  0  0  0  0  0  0  0  0  0
   17.3891   -7.1906   -6.5067 H   0  0  0  0  0  0  0  0  0  0  0  0
   18.4291   -5.3717   -5.1294 H   0  0  0  0  0  0  0  0  0  0  0  0
   18.7723   -3.1448   -6.8612 H   0  0  0  0  0  0  0  0  0  0  0  0
  1  2  1  0
  1  7  1  0
  1  8  1  0
  1  9  1  0
  2  3  1  0
  2 10  1  0
  2 11  1  0
  3  4  2  0
  3  5  1  0
  5  6  1  0
  5 12  1  0
  6 13  1  0
M  END
> <intraLJ>
0.059     

> <intraEL>
2.367     

> <intraDihe>
5.914     

> <interLJ>
0.000     

> <interEJ>
0.000     

> <gridLJ>
-2.120    

> <gridEL>
0.000     

> <totalE>
6.220     

> <LGFE>
-2.120  

> <LE>
-0.353  

> <SMILES>
CCC(=O)NO

> <atom.dprop.GFE>
-0.078 -0.07 0 -1.1 -0.53 -0.37 0 0 0 0 0 0 0

> <atom.prop.CLASS>
PRPC PRPC NCLA GENA GEND MEOO NCLA NCLA NCLA NCLA NCLA NCLA NCLA

$$$$
13
     RDKit          3D

 13 12  0  0  0  0  0  0  0  0999 V2000
   -4.3557   10.0424    8.8204 C   0  0  0  0  0  0  0  0  0  0  0  0
   -5.4436   10.8785    8.1129 C   0  0  0  0  0  0  0  0  0  0  0  0
   -5.0056   11.0782    6.6769 C   0  0  0  0  0  0  0  0  0  0  0  0
   -4.4958   12.1124    6.2757 O   0  0  0  0  0  0  0  0  0  0  0  0
   -5.1701   10.0500    5.8059 N   0  0  0  0  0  0  0  0  0  0  0  0
   -4.7642   10.1893    4.4632 O   0  0  0  0  0  0  0  0  0  0  0  0
   -4.6477    9.9121    9.8630 H   0  0  0  0  0  0  0  0  0  0  0  0
   -3.4084   10.5828    8.7621 H   0  0  0  0  0  0  0  0  0  0  0  0
   -4.2683    9.0712    8.3291 H   0  0  0  0  0  0  0  0  0  0  0  0
   -5.5043   11.8494    8.5854 H   0  0  0  0  0  0  0  0  0  0  0  0
   -6.3811   10.3401    8.1326 H   0  0  0  0  0  0  0  0  0  0  0  0
   -5.5817    9.1472    6.0931 H   0  0  0  0  0  0  0  0  0  0  0  0
   -4.3933   11.1040    4.4093 H   0  0  0  0  0  0  0  0  0  0  0  0
  1  2  1  0
  1  7  1  0
  1  8  1  0
  1  9  1  0
  2  3  1  0
  2 10  1  0
  2 11  1  0
  3  4  2  0
  3  5  1  0
  5  6  1  0
  5 12  1  0
  6 13  1  0
M  END
> <intraLJ>
0.050     

> <intraEL>
2.369     

> <intraDihe>
5.921     

> <interLJ>
0.000     

> <interEJ>
0.000     

> <gridLJ>
-2.145    

> <gridEL>
0.000     

> <totalE>
6.195     

> <LGFE>
-2.145  

> <LE>
-0.358  

> <SMILES>
CCC(=O)NO

> <atom.dprop.GFE>
0.00067 0.055 0 -0.88 -0.43 -0.89 0 0 0 0 0 0 0

> <atom.prop.CLASS>
PRPC PRPC NCLA GENA GEND MEOO NCLA NCLA NCLA NCLA NCLA NCLA NCLA

$$$$
13
     RDKit          3D

 13 12  0  0  0  0  0  0  0  0999 V2000
   20.4811   13.5017  -20.6260 C   0  0  0  0  0  0  0  0  0  0  0  0
   20.0476   13.2678  -19.1630 C   0  0  0  0  0  0  0  0  0  0  0  0
   21.3001   13.0186  -18.3488 C   0  0  0  0  0  0  0  0  0  0  0  0
   21.8347   13.8820  -17.6713 O   0  0  0  0  0  0  0  0  0  0  0  0
   21.8360   11.7713  -18.3595 N   0  0  0  0  0  0  0  0  0  0  0  0
   22.9940   11.4930  -17.6054 O   0  0  0  0  0  0  0  0  0  0  0  0
   19.5853   13.6584  -21.2280 H   0  0  0  0  0  0  0  0  0  0  0  0
   21.0169   12.6167  -20.9762 H   0  0  0  0  0  0  0  0  0  0  0  0
   21.1277   14.3802  -20.6764 H   0  0  0  0  0  0  0  0  0  0  0  0
   19.4321   12.3798  -19.1159 H   0  0  0  0  0  0  0  0  0  0  0  0
   19.5451   14.1500  -18.7909 H   0  0  0  0  0  0  0  0  0  0  0  0
   21.4178   10.9984  -18.9022 H   0  0  0  0  0  0  0  0  0  0  0  0
   23.2135   12.3490  -17.1622 H   0  0  0  0  0  0  0  0  0  0  0  0
  1  2  1  0
  1  7  1  0
  1  8  1  0
  1  9  1  0
  2  3  1  0
  2 10  1  0
  2 11  1  0
  3  4  2  0
  3  5  1  0
  5  6  1  0
  5 12  1  0
  6 13  1  0
M  END
> <intraLJ>
0.061     

> <intraEL>
2.384     

> <intraDihe>
5.927     

> <interLJ>
0.000     

> <interEJ>
0.000     

> <gridLJ>
-2.136    

> <gridEL>
0.000     

> <totalE>
6.236     

> <LGFE>
-2.136  

> <LE>
-0.356  

> <SMILES>
CCC(=O)NO

> <atom.dprop.GFE>
-0.32 -0.37 0 -0.56 -0.4 -0.49 0 0 0 0 0 0 0

> <atom.prop.CLASS>
PRPC PRPC NCLA GENA GEND MEOO NCLA NCLA NCLA NCLA NCLA NCLA NCLA

$$$$
13
     RDKit          3D

 13 12  0  0  0  0  0  0  0  0999 V2000
  -20.6112    0.1812   26.4640 C   0  0  0  0  0  0  0  0  0  0  0  0
  -19.7924    1.0074   27.4787 C   0  0  0  0  0  0  0  0  0  0  0  0
  -19.9490    0.3519   28.8350 C   0  0  0  0  0  0  0  0  0  0  0  0
  -19.0885   -0.3558   29.3342 O   0  0  0  0  0  0  0  0  0  0  0  0
  -21.0909    0.5825   29.5323 N   0  0  0  0  0  0  0  0  0  0  0  0
  -21.2717    0.0023   30.8042 O   0  0  0  0  0  0  0  0  0  0  0  0
  -20.5264    0.6573   25.4865 H   0  0  0  0  0  0  0  0  0  0  0  0
  -21.6550    0.1703   26.7853 H   0  0  0  0  0  0  0  0  0  0  0  0
  -20.2172   -0.8364   26.4232 H   0  0  0  0  0  0  0  0  0  0  0  0
  -20.2062    2.0049   27.5361 H   0  0  0  0  0  0  0  0  0  0  0  0
  -18.7497    0.9988   27.1922 H   0  0  0  0  0  0  0  0  0  0  0  0
  -21.8459    1.1847   29.1661 H   0  0  0  0  0  0  0  0  0  0  0  0
  -20.4420   -0.5110   30.9634 H   0  0  0  0  0  0  0  0  0  0  0  0
  1  2  1  0
  1  7  1  0
  1  8  1  0
  1  9  1  0
  2  3  1  0
  2 10  1  0
  2 11  1  0
  3  4  2  0
  3  5  1  0
  5  6  1  0
  5 12  1  0
  6 13  1  0
M  END
> <intraLJ>
0.074     

> <intraEL>
2.380     

> <intraDihe>
5.915     

> <interLJ>
0.000     

> <interEJ>
0.000     

> <gridLJ>
-2.116    

> <gridEL>
0.000     

> <totalE>
6.253     

> <LGFE>
-2.116  

> <LE>
-0.353  

> <SMILES>
CCC(=O)NO

> <atom.dprop.GFE>
-0.27 -0.25 0 -0.68 -0.47 -0.45 0 0 0 0 0 0 0

> <atom.prop.CLASS>
PRPC PRPC NCLA GENA GEND MEOO NCLA NCLA NCLA NCLA NCLA NCLA NCLA

$$$$
13
     RDKit          3D

 13 12  0  0  0  0  0  0  0  0999 V2000
   20.0152   14.4045  -41.4760 C   0  0  0  0  0  0  0  0  0  0  0  0
   21.2162   14.8052  -42.3593 C   0  0  0  0  0  0  0  0  0  0  0  0
   22.0592   13.5657  -42.5753 C   0  0  0  0  0  0  0  0  0  0  0  0
   22.0114   12.8997  -43.5974 O   0  0  0  0  0  0  0  0  0  0  0  0
   22.9207   13.1952  -41.5936 N   0  0  0  0  0  0  0  0  0  0  0  0
   23.7332   12.0553  -41.7594 O   0  0  0  0  0  0  0  0  0  0  0  0
   19.4126   15.2947  -41.2926 H   0  0  0  0  0  0  0  0  0  0  0  0
   20.3944   14.0085  -40.5315 H   0  0  0  0  0  0  0  0  0  0  0  0
   19.4219   13.6474  -41.9929 H   0  0  0  0  0  0  0  0  0  0  0  0
   21.8155   15.5329  -41.8295 H   0  0  0  0  0  0  0  0  0  0  0  0
   20.8570   15.1677  -43.3126 H   0  0  0  0  0  0  0  0  0  0  0  0
   23.0142   13.7293  -40.7145 H   0  0  0  0  0  0  0  0  0  0  0  0
   23.4988   11.7113  -42.6560 H   0  0  0  0  0  0  0  0  0  0  0  0
  1  2  1  0
  1  7  1  0
  1  8  1  0
  1  9  1  0
  2  3  1  0
  2 10  1  0
  2 11  1  0
  3  4  2  0
  3  5  1  0
  5  6  1  0
  5 12  1  0
  6 13  1  0
M  END
> <intraLJ>
0.065     

> <intraEL>
2.382     

> <intraDihe>
5.924     

> <interLJ>
0.000     

> <interEJ>
0.000     

> <gridLJ>
-2.083    

> <gridEL>
0.000     

> <totalE>
6.288     

> <LGFE>
-2.083  

> <LE>
-0.347  

> <SMILES>
CCC(=O)NO

> <atom.dprop.GFE>
-0.13 -0.072 0 -0.88 -0.38 -0.62 0 0 0 0 0 0 0

> <atom.prop.CLASS>
PRPC PRPC NCLA GENA GEND MEOO NCLA NCLA NCLA NCLA NCLA NCLA NCLA

$$$$
13
     RDKit          3D

 13 12  0  0  0  0  0  0  0  0999 V2000
   21.3020   12.2866    4.1891 C   0  0  0  0  0  0  0  0  0  0  0  0
   20.3611   11.9681    3.0075 C   0  0  0  0  0  0  0  0  0  0  0  0
   21.2260   11.6889    1.7961 C   0  0  0  0  0  0  0  0  0  0  0  0
   21.3864   12.4960    0.8942 O   0  0  0  0  0  0  0  0  0  0  0  0
   21.8666   10.4940    1.7253 N   0  0  0  0  0  0  0  0  0  0  0  0
   22.6918   10.1987    0.6212 O   0  0  0  0  0  0  0  0  0  0  0  0
   20.6903   12.5138    5.0629 H   0  0  0  0  0  0  0  0  0  0  0  0
   21.9124   13.1529    3.9245 H   0  0  0  0  0  0  0  0  0  0  0  0
   21.9384   11.4221    4.3888 H   0  0  0  0  0  0  0  0  0  0  0  0
   19.7546   12.8382    2.7960 H   0  0  0  0  0  0  0  0  0  0  0  0
   19.7737   11.0909    3.2413 H   0  0  0  0  0  0  0  0  0  0  0  0
   21.7798    9.7795    2.4661 H   0  0  0  0  0  0  0  0  0  0  0  0
   22.6449   11.0063    0.0530 H   0  0  0  0  0  0  0  0  0  0  0  0
  1  2  1  0
  1  7  1  0
  1  8  1  0
  1  9  1  0
  2  3  1  0
  2 10  1  0
  2 11  1  0
  3  4  2  0
  3  5  1  0
  5  6  1  0
  5 12  1  0
  6 13  1  0
M  END
> <intraLJ>
0.067     

> <intraEL>
2.366     

> <intraDihe>
5.909     

> <interLJ>
0.000     

> <interEJ>
0.000     

> <gridLJ>
-2.007    

> <gridEL>
0.000     

> <totalE>
6.334     

> <LGFE>
-2.007  

> <LE>
-0.334  

> <SMILES>
CCC(=O)NO

> <atom.dprop.GFE>
-0.17 -0.28 0 -0.67 -0.49 -0.41 0 0 0 0 0 0 0

> <atom.prop.CLASS>
PRPC PRPC NCLA GENA GEND MEOO NCLA NCLA NCLA NCLA NCLA NCLA NCLA

$$$$
13
     RDKit          3D

 13 12  0  0  0  0  0  0  0  0999 V2000
   17.3506   14.6113  -44.7253 C   0  0  0  0  0  0  0  0  0  0  0  0
   16.6809   14.5727  -46.1156 C   0  0  0  0  0  0  0  0  0  0  0  0
   16.8507   13.1722  -46.6667 C   0  0  0  0  0  0  0  0  0  0  0  0
   17.6884   12.8862  -47.5074 O   0  0  0  0  0  0  0  0  0  0  0  0
   16.0466   12.1901  -46.1848 N   0  0  0  0  0  0  0  0  0  0  0  0
   16.1802   10.8701  -46.6611 O   0  0  0  0  0  0  0  0  0  0  0  0
   17.2566   15.6224  -44.3276 H   0  0  0  0  0  0  0  0  0  0  0  0
   18.4051   14.3509  -44.8393 H   0  0  0  0  0  0  0  0  0  0  0  0
   16.8540   13.8983  -44.0640 H   0  0  0  0  0  0  0  0  0  0  0  0
   17.1961   15.2591  -46.7737 H   0  0  0  0  0  0  0  0  0  0  0  0
   15.6276   14.7953  -46.0144 H   0  0  0  0  0  0  0  0  0  0  0  0
   15.3310   12.3711  -45.4624 H   0  0  0  0  0  0  0  0  0  0  0  0
   16.9153   10.9170  -47.3204 H   0  0  0  0  0  0  0  0  0  0  0  0
  1  2  1  0
  1  7  1  0
  1  8  1  0
  1  9  1  0
  2  3  1  0
  2 10  1  0
  2 11  1  0
  3  4  2  0
  3  5  1  0
  5  6  1  0
  5 12  1  0
  6 13  1  0
M  END
> <intraLJ>
0.056     

> <intraEL>
2.367     

> <intraDihe>
5.916     

> <interLJ>
0.000     

> <interEJ>
0.000     

> <gridLJ>
-2.024    

> <gridEL>
0.000     

> <totalE>
6.316     

> <LGFE>
-2.024  

> <LE>
-0.337  

> <SMILES>
CCC(=O)NO

> <atom.dprop.GFE>
-0.23 -0.21 0 -0.6 -0.51 -0.47 0 0 0 0 0 0 0

> <atom.prop.CLASS>
PRPC PRPC NCLA GENA GEND MEOO NCLA NCLA NCLA NCLA NCLA NCLA NCLA

$$$$
