16
     RDKit          3D

 10 10  0  0  0  0  0  0  0  0999 V2000
  -19.0818    5.2568    7.4445 N   0  0  0  0  0  0  0  0  0  0  0  0
  -18.1385    4.7884    7.0204 C   0  0  0  0  0  0  0  0  0  0  0  0
  -16.9059    4.1767    6.4661 C   0  0  0  0  0  0  0  0  0  0  0  0
  -15.6129    4.6657    7.0519 C   0  0  0  0  0  0  0  0  0  0  0  0
  -16.0276    5.0904    5.6625 C   0  0  0  0  0  0  0  0  0  0  0  0
  -16.9908    3.1387    6.1748 H   0  0  0  0  0  0  0  0  0  0  0  0
  -14.8087    3.9446    7.1189 H   0  0  0  0  0  0  0  0  0  0  0  0
  -15.6778    5.4184    7.8290 H   0  0  0  0  0  0  0  0  0  0  0  0
  -16.3579    6.1154    5.5461 H   0  0  0  0  0  0  0  0  0  0  0  0
  -15.4904    4.6410    4.8373 H   0  0  0  0  0  0  0  0  0  0  0  0
  1  2  3  0
  2  3  1  0
  3  4  1  0
  3  5  1  0
  3  6  1  0
  4  5  1  0
  4  7  1  0
  4  8  1  0
  5  9  1  0
  5 10  1  0
M  END
> <intraLJ>
-0.168    

> <intraEL>
1.810     

> <intraDihe>
1.484     

> <interLJ>
0.000     

> <interEJ>
0.000     

> <gridLJ>
-3.761    

> <gridEL>
0.000     

> <totalE>
-0.635    

> <LGFE>
-3.761  

> <LE>
-0.752  

> <SMILES>
N#CC1CC1

> <atom.dprop.GFE>
-1.8 0 -0.58 -0.68 -0.7 0 0 0 0 0

> <atom.prop.CLASS>
GENA NCLA PRPC PRPC PRPC NCLA NCLA NCLA NCLA NCLA

$$$$
16
     RDKit          3D

 10 10  0  0  0  0  0  0  0  0999 V2000
  -15.4439    6.2557   -0.7895 N   0  0  0  0  0  0  0  0  0  0  0  0
  -16.0208    6.6039   -1.7033 C   0  0  0  0  0  0  0  0  0  0  0  0
  -16.7749    7.0587   -2.8972 C   0  0  0  0  0  0  0  0  0  0  0  0
  -18.0800    7.7483   -2.6226 C   0  0  0  0  0  0  0  0  0  0  0  0
  -18.0638    6.3397   -3.1686 C   0  0  0  0  0  0  0  0  0  0  0  0
  -16.1717    7.3895   -3.7315 H   0  0  0  0  0  0  0  0  0  0  0  0
  -18.3673    8.5322   -3.3112 H   0  0  0  0  0  0  0  0  0  0  0  0
  -18.3674    7.8629   -1.5839 H   0  0  0  0  0  0  0  0  0  0  0  0
  -18.3417    5.5493   -2.4821 H   0  0  0  0  0  0  0  0  0  0  0  0
  -18.3397    6.2192   -4.2083 H   0  0  0  0  0  0  0  0  0  0  0  0
  1  2  3  0
  2  3  1  0
  3  4  1  0
  3  5  1  0
  3  6  1  0
  4  5  1  0
  4  7  1  0
  4  8  1  0
  5  9  1  0
  5 10  1  0
M  END
> <intraLJ>
-0.168    

> <intraEL>
1.810     

> <intraDihe>
1.484     

> <interLJ>
0.000     

> <interEJ>
0.000     

> <gridLJ>
-3.693    

> <gridEL>
0.000     

> <totalE>
-0.567    

> <LGFE>
-3.693  

> <LE>
-0.739  

> <SMILES>
N#CC1CC1

> <atom.dprop.GFE>
-2 0 -0.59 -0.51 -0.58 0 0 0 0 0

> <atom.prop.CLASS>
GENA NCLA PRPC PRPC PRPC NCLA NCLA NCLA NCLA NCLA

$$$$
16
     RDKit          3D

 10 10  0  0  0  0  0  0  0  0999 V2000
    0.9210   -1.8835   -6.6411 N   0  0  0  0  0  0  0  0  0  0  0  0
    0.9562   -2.1303   -5.5335 C   0  0  0  0  0  0  0  0  0  0  0  0
    1.0022   -2.4530   -4.0862 C   0  0  0  0  0  0  0  0  0  0  0  0
    1.6727   -3.7470   -3.7259 C   0  0  0  0  0  0  0  0  0  0  0  0
    0.1689   -3.6227   -3.6511 C   0  0  0  0  0  0  0  0  0  0  0  0
    1.1058   -1.6054   -3.4226 H   0  0  0  0  0  0  0  0  0  0  0  0
    2.2050   -3.7703   -2.7838 H   0  0  0  0  0  0  0  0  0  0  0  0
    2.0707   -4.3393   -4.5416 H   0  0  0  0  0  0  0  0  0  0  0  0
   -0.3997   -4.1354   -4.4172 H   0  0  0  0  0  0  0  0  0  0  0  0
   -0.2644   -3.5649   -2.6609 H   0  0  0  0  0  0  0  0  0  0  0  0
  1  2  3  0
  2  3  1  0
  3  4  1  0
  3  5  1  0
  3  6  1  0
  4  5  1  0
  4  7  1  0
  4  8  1  0
  5  9  1  0
  5 10  1  0
M  END
> <intraLJ>
-0.168    

> <intraEL>
1.810     

> <intraDihe>
1.484     

> <interLJ>
0.000     

> <interEJ>
0.000     

> <gridLJ>
-3.398    

> <gridEL>
0.000     

> <totalE>
-0.272    

> <LGFE>
-3.398  

> <LE>
-0.680  

> <SMILES>
N#CC1CC1

> <atom.dprop.GFE>
-1.8 0 -0.58 -0.51 -0.52 0 0 0 0 0

> <atom.prop.CLASS>
GENA NCLA PRPC PRPC PRPC NCLA NCLA NCLA NCLA NCLA

$$$$
16
     RDKit          3D

 10 10  0  0  0  0  0  0  0  0999 V2000
  -21.0986    2.1781   23.4623 N   0  0  0  0  0  0  0  0  0  0  0  0
  -20.2207    1.6299   22.9955 C   0  0  0  0  0  0  0  0  0  0  0  0
  -19.0734    0.9137   22.3859 C   0  0  0  0  0  0  0  0  0  0  0  0
  -18.5269   -0.2389   23.1777 C   0  0  0  0  0  0  0  0  0  0  0  0
  -17.7598    1.0602   23.0965 C   0  0  0  0  0  0  0  0  0  0  0  0
  -19.0831    0.8514   21.3064 H   0  0  0  0  0  0  0  0  0  0  0  0
  -18.1320   -1.0716   22.6104 H   0  0  0  0  0  0  0  0  0  0  0  0
  -19.0089   -0.4595   24.1230 H   0  0  0  0  0  0  0  0  0  0  0  0
  -17.7476    1.6739   23.9890 H   0  0  0  0  0  0  0  0  0  0  0  0
  -16.8730    1.0620   22.4761 H   0  0  0  0  0  0  0  0  0  0  0  0
  1  2  3  0
  2  3  1  0
  3  4  1  0
  3  5  1  0
  3  6  1  0
  4  5  1  0
  4  7  1  0
  4  8  1  0
  5  9  1  0
  5 10  1  0
M  END
> <intraLJ>
-0.168    

> <intraEL>
1.810     

> <intraDihe>
1.484     

> <interLJ>
0.000     

> <interEJ>
0.000     

> <gridLJ>
-3.226    

> <gridEL>
0.000     

> <totalE>
-0.101    

> <LGFE>
-3.226  

> <LE>
-0.645  

> <SMILES>
N#CC1CC1

> <atom.dprop.GFE>
-1.7 0 -0.5 -0.48 -0.53 0 0 0 0 0

> <atom.prop.CLASS>
GENA NCLA PRPC PRPC PRPC NCLA NCLA NCLA NCLA NCLA

$$$$
16
     RDKit          3D

 10 10  0  0  0  0  0  0  0  0999 V2000
  -22.7279    5.0226    4.3241 N   0  0  0  0  0  0  0  0  0  0  0  0
  -22.3305    4.7773    5.3590 C   0  0  0  0  0  0  0  0  0  0  0  0
  -21.8110    4.4568    6.7111 C   0  0  0  0  0  0  0  0  0  0  0  0
  -21.0038    5.5353    7.3740 C   0  0  0  0  0  0  0  0  0  0  0  0
  -20.3219    4.3062    6.8200 C   0  0  0  0  0  0  0  0  0  0  0  0
  -22.4486    3.8296    7.3190 H   0  0  0  0  0  0  0  0  0  0  0  0
  -21.0800    5.6037    8.4514 H   0  0  0  0  0  0  0  0  0  0  0  0
  -20.8660    6.4574    6.8213 H   0  0  0  0  0  0  0  0  0  0  0  0
  -19.7452    4.4379    5.9126 H   0  0  0  0  0  0  0  0  0  0  0  0
  -19.9611    3.5847    7.5417 H   0  0  0  0  0  0  0  0  0  0  0  0
  1  2  3  0
  2  3  1  0
  3  4  1  0
  3  5  1  0
  3  6  1  0
  4  5  1  0
  4  7  1  0
  4  8  1  0
  5  9  1  0
  5 10  1  0
M  END
> <intraLJ>
-0.168    

> <intraEL>
1.810     

> <intraDihe>
1.484     

> <interLJ>
0.000     

> <interEJ>
0.000     

> <gridLJ>
-2.976    

> <gridEL>
0.000     

> <totalE>
0.150     

> <LGFE>
-2.976  

> <LE>
-0.595  

> <SMILES>
N#CC1CC1

> <atom.dprop.GFE>
-1.4 0 -0.44 -0.57 -0.56 0 0 0 0 0

> <atom.prop.CLASS>
GENA NCLA PRPC PRPC PRPC NCLA NCLA NCLA NCLA NCLA

$$$$
16
     RDKit          3D

 10 10  0  0  0  0  0  0  0  0999 V2000
   -4.0608   14.2875   -0.7547 N   0  0  0  0  0  0  0  0  0  0  0  0
   -2.9530   14.2588   -1.0019 C   0  0  0  0  0  0  0  0  0  0  0  0
   -1.5057   14.2211   -1.3253 C   0  0  0  0  0  0  0  0  0  0  0  0
   -1.0801   15.0326   -2.5146 C   0  0  0  0  0  0  0  0  0  0  0  0
   -1.1399   13.5256   -2.6037 C   0  0  0  0  0  0  0  0  0  0  0  0
   -0.8401   14.1450   -0.4764 H   0  0  0  0  0  0  0  0  0  0  0  0
   -0.0945   15.4772   -2.4694 H   0  0  0  0  0  0  0  0  0  0  0  0
   -1.8541   15.5808   -3.0392 H   0  0  0  0  0  0  0  0  0  0  0  0
   -1.9508   13.1051   -3.1859 H   0  0  0  0  0  0  0  0  0  0  0  0
   -0.1925   13.0023   -2.6146 H   0  0  0  0  0  0  0  0  0  0  0  0
  1  2  3  0
  2  3  1  0
  3  4  1  0
  3  5  1  0
  3  6  1  0
  4  5  1  0
  4  7  1  0
  4  8  1  0
  5  9  1  0
  5 10  1  0
M  END
> <intraLJ>
-0.168    

> <intraEL>
1.810     

> <intraDihe>
1.484     

> <interLJ>
0.000     

> <interEJ>
0.000     

> <gridLJ>
-2.900    

> <gridEL>
0.000     

> <totalE>
0.225     

> <LGFE>
-2.900  

> <LE>
-0.580  

> <SMILES>
N#CC1CC1

> <atom.dprop.GFE>
-1 0 -0.66 -0.67 -0.58 0 0 0 0 0

> <atom.prop.CLASS>
GENA NCLA PRPC PRPC PRPC NCLA NCLA NCLA NCLA NCLA

$$$$
16
     RDKit          3D

 10 10  0  0  0  0  0  0  0  0999 V2000
   21.5189   14.2648   -3.9818 N   0  0  0  0  0  0  0  0  0  0  0  0
   20.4596   14.5130   -4.3065 C   0  0  0  0  0  0  0  0  0  0  0  0
   19.0756   14.8375   -4.7307 C   0  0  0  0  0  0  0  0  0  0  0  0
   18.9309   16.0272   -5.6350 C   0  0  0  0  0  0  0  0  0  0  0  0
   18.5087   16.1162   -4.1871 C   0  0  0  0  0  0  0  0  0  0  0  0
   18.4198   13.9891   -4.8703 H   0  0  0  0  0  0  0  0  0  0  0  0
   18.1376   15.9828   -6.3698 H   0  0  0  0  0  0  0  0  0  0  0  0
   19.8394   16.5511   -5.9086 H   0  0  0  0  0  0  0  0  0  0  0  0
   19.1443   16.6976   -3.5305 H   0  0  0  0  0  0  0  0  0  0  0  0
   17.4441   16.1278   -3.9920 H   0  0  0  0  0  0  0  0  0  0  0  0
  1  2  3  0
  2  3  1  0
  3  4  1  0
  3  5  1  0
  3  6  1  0
  4  5  1  0
  4  7  1  0
  4  8  1  0
  5  9  1  0
  5 10  1  0
M  END
> <intraLJ>
-0.168    

> <intraEL>
1.810     

> <intraDihe>
1.484     

> <interLJ>
0.000     

> <interEJ>
0.000     

> <gridLJ>
-2.916    

> <gridEL>
0.000     

> <totalE>
0.210     

> <LGFE>
-2.916  

> <LE>
-0.583  

> <SMILES>
N#CC1CC1

> <atom.dprop.GFE>
-1 0 -0.67 -0.62 -0.58 0 0 0 0 0

> <atom.prop.CLASS>
GENA NCLA PRPC PRPC PRPC NCLA NCLA NCLA NCLA NCLA

$$$$
16
     RDKit          3D

 10 10  0  0  0  0  0  0  0  0999 V2000
  -19.0878   -3.9517   23.5937 N   0  0  0  0  0  0  0  0  0  0  0  0
  -18.5851   -2.9466   23.7555 C   0  0  0  0  0  0  0  0  0  0  0  0
  -17.9285   -1.6332   23.9666 C   0  0  0  0  0  0  0  0  0  0  0  0
  -18.7937   -0.4265   23.7446 C   0  0  0  0  0  0  0  0  0  0  0  0
  -17.7309   -0.7965   22.7366 C   0  0  0  0  0  0  0  0  0  0  0  0
  -17.1800   -1.6062   24.7467 H   0  0  0  0  0  0  0  0  0  0  0  0
  -18.5920    0.4348   24.3681 H   0  0  0  0  0  0  0  0  0  0  0  0
  -19.8222   -0.6048   23.4530 H   0  0  0  0  0  0  0  0  0  0  0  0
  -18.0755   -1.2114   21.7973 H   0  0  0  0  0  0  0  0  0  0  0  0
  -16.8461   -0.1735   22.7137 H   0  0  0  0  0  0  0  0  0  0  0  0
  1  2  3  0
  2  3  1  0
  3  4  1  0
  3  5  1  0
  3  6  1  0
  4  5  1  0
  4  7  1  0
  4  8  1  0
  5  9  1  0
  5 10  1  0
M  END
> <intraLJ>
-0.168    

> <intraEL>
1.810     

> <intraDihe>
1.484     

> <interLJ>
0.000     

> <interEJ>
0.000     

> <gridLJ>
-2.868    

> <gridEL>
0.000     

> <totalE>
0.258     

> <LGFE>
-2.868  

> <LE>
-0.574  

> <SMILES>
N#CC1CC1

> <atom.dprop.GFE>
-1.6 0 -0.35 -0.38 -0.51 0 0 0 0 0

> <atom.prop.CLASS>
GENA NCLA PRPC PRPC PRPC NCLA NCLA NCLA NCLA NCLA

$$$$
16
     RDKit          3D

 10 10  0  0  0  0  0  0  0  0999 V2000
   18.2669   -1.4785  -36.5223 N   0  0  0  0  0  0  0  0  0  0  0  0
   17.9326   -1.7011  -35.4604 C   0  0  0  0  0  0  0  0  0  0  0  0
   17.4955   -1.9916  -34.0728 C   0  0  0  0  0  0  0  0  0  0  0  0
   16.0130   -2.1052  -33.8646 C   0  0  0  0  0  0  0  0  0  0  0  0
   16.7590   -0.8860  -33.3749 C   0  0  0  0  0  0  0  0  0  0  0  0
   18.1563   -2.6270  -33.4992 H   0  0  0  0  0  0  0  0  0  0  0  0
   15.6827   -2.8073  -33.1101 H   0  0  0  0  0  0  0  0  0  0  0  0
   15.3817   -1.9706  -34.7352 H   0  0  0  0  0  0  0  0  0  0  0  0
   16.6067    0.0319  -33.9294 H   0  0  0  0  0  0  0  0  0  0  0  0
   16.9087   -0.8058  -32.3060 H   0  0  0  0  0  0  0  0  0  0  0  0
  1  2  3  0
  2  3  1  0
  3  4  1  0
  3  5  1  0
  3  6  1  0
  4  5  1  0
  4  7  1  0
  4  8  1  0
  5  9  1  0
  5 10  1  0
M  END
> <intraLJ>
-0.168    

> <intraEL>
1.810     

> <intraDihe>
1.484     

> <interLJ>
0.000     

> <interEJ>
0.000     

> <gridLJ>
-2.774    

> <gridEL>
0.000     

> <totalE>
0.352     

> <LGFE>
-2.774  

> <LE>
-0.555  

> <SMILES>
N#CC1CC1

> <atom.dprop.GFE>
-1.4 0 -0.49 -0.43 -0.49 0 0 0 0 0

> <atom.prop.CLASS>
GENA NCLA PRPC PRPC PRPC NCLA NCLA NCLA NCLA NCLA

$$$$
16
     RDKit          3D

 10 10  0  0  0  0  0  0  0  0999 V2000
  -22.9568    3.0856   22.7004 N   0  0  0  0  0  0  0  0  0  0  0  0
  -23.8809    3.6490   22.3575 C   0  0  0  0  0  0  0  0  0  0  0  0
  -25.0884    4.3851   21.9091 C   0  0  0  0  0  0  0  0  0  0  0  0
  -26.0311    3.6190   21.0269 C   0  0  0  0  0  0  0  0  0  0  0  0
  -25.1536    4.7019   20.4438 C   0  0  0  0  0  0  0  0  0  0  0  0
  -25.4926    5.0940   22.6188 H   0  0  0  0  0  0  0  0  0  0  0  0
  -27.0836    3.8495   21.1279 H   0  0  0  0  0  0  0  0  0  0  0  0
  -25.7621    2.5963   20.7895 H   0  0  0  0  0  0  0  0  0  0  0  0
  -24.3218    4.3760   19.8312 H   0  0  0  0  0  0  0  0  0  0  0  0
  -25.6426    5.6284   20.1715 H   0  0  0  0  0  0  0  0  0  0  0  0
  1  2  3  0
  2  3  1  0
  3  4  1  0
  3  5  1  0
  3  6  1  0
  4  5  1  0
  4  7  1  0
  4  8  1  0
  5  9  1  0
  5 10  1  0
M  END
> <intraLJ>
-0.168    

> <intraEL>
1.810     

> <intraDihe>
1.484     

> <interLJ>
0.000     

> <interEJ>
0.000     

> <gridLJ>
-2.760    

> <gridEL>
0.000     

> <totalE>
0.366     

> <LGFE>
-2.760  

> <LE>
-0.552  

> <SMILES>
N#CC1CC1

> <atom.dprop.GFE>
-1.9 0 -0.29 -0.3 -0.28 0 0 0 0 0

> <atom.prop.CLASS>
GENA NCLA PRPC PRPC PRPC NCLA NCLA NCLA NCLA NCLA

$$$$
16
     RDKit          3D

 10 10  0  0  0  0  0  0  0  0999 V2000
  -21.0386   -5.6034   25.2935 N   0  0  0  0  0  0  0  0  0  0  0  0
  -20.9356   -6.6054   25.8173 C   0  0  0  0  0  0  0  0  0  0  0  0
  -20.8014   -7.9146   26.5020 C   0  0  0  0  0  0  0  0  0  0  0  0
  -22.0548   -8.7361   26.5935 C   0  0  0  0  0  0  0  0  0  0  0  0
  -21.5108   -8.0390   27.8185 C   0  0  0  0  0  0  0  0  0  0  0  0
  -19.8534   -8.4168   26.3661 H   0  0  0  0  0  0  0  0  0  0  0  0
  -21.9330   -9.8107   26.5527 H   0  0  0  0  0  0  0  0  0  0  0  0
  -22.9522   -8.3159   26.1544 H   0  0  0  0  0  0  0  0  0  0  0  0
  -22.0584   -7.1720   28.1675 H   0  0  0  0  0  0  0  0  0  0  0  0
  -21.0386   -8.6659   28.5639 H   0  0  0  0  0  0  0  0  0  0  0  0
  1  2  3  0
  2  3  1  0
  3  4  1  0
  3  5  1  0
  3  6  1  0
  4  5  1  0
  4  7  1  0
  4  8  1  0
  5  9  1  0
  5 10  1  0
M  END
> <intraLJ>
-0.168    

> <intraEL>
1.810     

> <intraDihe>
1.484     

> <interLJ>
0.000     

> <interEJ>
0.000     

> <gridLJ>
-2.729    

> <gridEL>
0.000     

> <totalE>
0.397     

> <LGFE>
-2.729  

> <LE>
-0.546  

> <SMILES>
N#CC1CC1

> <atom.dprop.GFE>
-1.5 0 -0.42 -0.42 -0.42 0 0 0 0 0

> <atom.prop.CLASS>
GENA NCLA PRPC PRPC PRPC NCLA NCLA NCLA NCLA NCLA

$$$$
16
     RDKit          3D

 10 10  0  0  0  0  0  0  0  0999 V2000
  -19.5757   -4.8297   24.1585 N   0  0  0  0  0  0  0  0  0  0  0  0
  -19.7037   -5.2825   25.1918 C   0  0  0  0  0  0  0  0  0  0  0  0
  -19.8710   -5.8745   26.5418 C   0  0  0  0  0  0  0  0  0  0  0  0
  -19.1145   -7.1461   26.7964 C   0  0  0  0  0  0  0  0  0  0  0  0
  -20.6116   -7.1785   26.5960 C   0  0  0  0  0  0  0  0  0  0  0  0
  -19.9940   -5.1661   27.3495 H   0  0  0  0  0  0  0  0  0  0  0  0
  -18.7567   -7.3024   27.8058 H   0  0  0  0  0  0  0  0  0  0  0  0
  -18.5077   -7.5292   25.9841 H   0  0  0  0  0  0  0  0  0  0  0  0
  -20.9673   -7.5831   25.6563 H   0  0  0  0  0  0  0  0  0  0  0  0
  -21.2153   -7.3546   27.4770 H   0  0  0  0  0  0  0  0  0  0  0  0
  1  2  3  0
  2  3  1  0
  3  4  1  0
  3  5  1  0
  3  6  1  0
  4  5  1  0
  4  7  1  0
  4  8  1  0
  5  9  1  0
  5 10  1  0
M  END
> <intraLJ>
-0.168    

> <intraEL>
1.810     

> <intraDihe>
1.484     

> <interLJ>
0.000     

> <interEJ>
0.000     

> <gridLJ>
-2.719    

> <gridEL>
0.000     

> <totalE>
0.407     

> <LGFE>
-2.719  

> <LE>
-0.544  

> <SMILES>
N#CC1CC1

> <atom.dprop.GFE>
-1.6 0 -0.32 -0.38 -0.4 0 0 0 0 0

> <atom.prop.CLASS>
GENA NCLA PRPC PRPC PRPC NCLA NCLA NCLA NCLA NCLA

$$$$
16
     RDKit          3D

 10 10  0  0  0  0  0  0  0  0999 V2000
    7.2178   -6.8437    3.2804 N   0  0  0  0  0  0  0  0  0  0  0  0
    7.3110   -5.9388    2.6010 C   0  0  0  0  0  0  0  0  0  0  0  0
    7.4330   -4.7565    1.7133 C   0  0  0  0  0  0  0  0  0  0  0  0
    8.3957   -4.8942    0.5696 C   0  0  0  0  0  0  0  0  0  0  0  0
    8.7486   -4.0362    1.7620 C   0  0  0  0  0  0  0  0  0  0  0  0
    6.5259   -4.1854    1.5701 H   0  0  0  0  0  0  0  0  0  0  0  0
    8.1395   -4.3735   -0.3439 H   0  0  0  0  0  0  0  0  0  0  0  0
    8.9206   -5.8381    0.4786 H   0  0  0  0  0  0  0  0  0  0  0  0
    9.5004   -4.4273    2.4366 H   0  0  0  0  0  0  0  0  0  0  0  0
    8.7178   -2.9643    1.6145 H   0  0  0  0  0  0  0  0  0  0  0  0
  1  2  3  0
  2  3  1  0
  3  4  1  0
  3  5  1  0
  3  6  1  0
  4  5  1  0
  4  7  1  0
  4  8  1  0
  5  9  1  0
  5 10  1  0
M  END
> <intraLJ>
-0.168    

> <intraEL>
1.810     

> <intraDihe>
1.484     

> <interLJ>
0.000     

> <interEJ>
0.000     

> <gridLJ>
-2.717    

> <gridEL>
0.000     

> <totalE>
0.409     

> <LGFE>
-2.717  

> <LE>
-0.543  

> <SMILES>
N#CC1CC1

> <atom.dprop.GFE>
-1.2 0 -0.6 -0.43 -0.47 0 0 0 0 0

> <atom.prop.CLASS>
GENA NCLA PRPC PRPC PRPC NCLA NCLA NCLA NCLA NCLA

$$$$
16
     RDKit          3D

 10 10  0  0  0  0  0  0  0  0999 V2000
  -21.0975    4.9901   -3.8027 N   0  0  0  0  0  0  0  0  0  0  0  0
  -20.1988    5.6793   -3.7228 C   0  0  0  0  0  0  0  0  0  0  0  0
  -19.0246    6.5799   -3.6181 C   0  0  0  0  0  0  0  0  0  0  0  0
  -17.9622    6.1585   -2.6446 C   0  0  0  0  0  0  0  0  0  0  0  0
  -18.8787    7.3143   -2.3176 C   0  0  0  0  0  0  0  0  0  0  0  0
  -18.7309    7.0716   -4.5354 H   0  0  0  0  0  0  0  0  0  0  0  0
  -16.9416    6.4072   -2.9045 H   0  0  0  0  0  0  0  0  0  0  0  0
  -18.1308    5.2366   -2.1002 H   0  0  0  0  0  0  0  0  0  0  0  0
  -19.6351    7.1363   -1.5631 H   0  0  0  0  0  0  0  0  0  0  0  0
  -18.4467    8.3054   -2.3688 H   0  0  0  0  0  0  0  0  0  0  0  0
  1  2  3  0
  2  3  1  0
  3  4  1  0
  3  5  1  0
  3  6  1  0
  4  5  1  0
  4  7  1  0
  4  8  1  0
  5  9  1  0
  5 10  1  0
M  END
> <intraLJ>
-0.168    

> <intraEL>
1.810     

> <intraDihe>
1.484     

> <interLJ>
0.000     

> <interEJ>
0.000     

> <gridLJ>
-2.672    

> <gridEL>
0.000     

> <totalE>
0.454     

> <LGFE>
-2.672  

> <LE>
-0.534  

> <SMILES>
N#CC1CC1

> <atom.dprop.GFE>
-1.2 0 -0.42 -0.58 -0.44 0 0 0 0 0

> <atom.prop.CLASS>
GENA NCLA PRPC PRPC PRPC NCLA NCLA NCLA NCLA NCLA

$$$$
16
     RDKit          3D

 10 10  0  0  0  0  0  0  0  0999 V2000
  -16.0111    7.0270  -17.3492 N   0  0  0  0  0  0  0  0  0  0  0  0
  -15.8537    7.8099  -16.5420 C   0  0  0  0  0  0  0  0  0  0  0  0
  -15.6478    8.8324  -15.4872 C   0  0  0  0  0  0  0  0  0  0  0  0
  -14.3018    8.8241  -14.8223 C   0  0  0  0  0  0  0  0  0  0  0  0
  -15.5169    8.3091  -14.0868 C   0  0  0  0  0  0  0  0  0  0  0  0
  -16.1468    9.7778  -15.6506 H   0  0  0  0  0  0  0  0  0  0  0  0
  -13.9129    9.7829  -14.5049 H   0  0  0  0  0  0  0  0  0  0  0  0
  -13.5893    8.0814  -15.1620 H   0  0  0  0  0  0  0  0  0  0  0  0
  -15.5853    7.2365  -13.9527 H   0  0  0  0  0  0  0  0  0  0  0  0
  -15.9090    8.9379  -13.2979 H   0  0  0  0  0  0  0  0  0  0  0  0
  1  2  3  0
  2  3  1  0
  3  4  1  0
  3  5  1  0
  3  6  1  0
  4  5  1  0
  4  7  1  0
  4  8  1  0
  5  9  1  0
  5 10  1  0
M  END
> <intraLJ>
-0.168    

> <intraEL>
1.810     

> <intraDihe>
1.484     

> <interLJ>
0.000     

> <interEJ>
0.000     

> <gridLJ>
-2.607    

> <gridEL>
0.000     

> <totalE>
0.519     

> <LGFE>
-2.607  

> <LE>
-0.521  

> <SMILES>
N#CC1CC1

> <atom.dprop.GFE>
-1 0 -0.54 -0.51 -0.54 0 0 0 0 0

> <atom.prop.CLASS>
GENA NCLA PRPC PRPC PRPC NCLA NCLA NCLA NCLA NCLA

$$$$
16
     RDKit          3D

 10 10  0  0  0  0  0  0  0  0999 V2000
  -30.4772   -9.6095   22.2542 N   0  0  0  0  0  0  0  0  0  0  0  0
  -30.1304  -10.1427   23.1947 C   0  0  0  0  0  0  0  0  0  0  0  0
  -29.6769  -10.8391   24.4236 C   0  0  0  0  0  0  0  0  0  0  0  0
  -29.7590  -10.0434   25.6941 C   0  0  0  0  0  0  0  0  0  0  0  0
  -28.4194  -10.3096   25.0482 C   0  0  0  0  0  0  0  0  0  0  0  0
  -29.8730  -11.9021   24.4563 H   0  0  0  0  0  0  0  0  0  0  0  0
  -29.9802  -10.5962   26.5978 H   0  0  0  0  0  0  0  0  0  0  0  0
  -30.1421   -9.0324   25.6181 H   0  0  0  0  0  0  0  0  0  0  0  0
  -27.9409   -9.4704   24.5583 H   0  0  0  0  0  0  0  0  0  0  0  0
  -27.7808  -11.0343   25.5366 H   0  0  0  0  0  0  0  0  0  0  0  0
  1  2  3  0
  2  3  1  0
  3  4  1  0
  3  5  1  0
  3  6  1  0
  4  5  1  0
  4  7  1  0
  4  8  1  0
  5  9  1  0
  5 10  1  0
M  END
> <intraLJ>
-0.168    

> <intraEL>
1.810     

> <intraDihe>
1.484     

> <interLJ>
0.000     

> <interEJ>
0.000     

> <gridLJ>
-2.610    

> <gridEL>
0.000     

> <totalE>
0.516     

> <LGFE>
-2.610  

> <LE>
-0.522  

> <SMILES>
N#CC1CC1

> <atom.dprop.GFE>
-1.1 0 -0.52 -0.48 -0.48 0 0 0 0 0

> <atom.prop.CLASS>
GENA NCLA PRPC PRPC PRPC NCLA NCLA NCLA NCLA NCLA

$$$$
16
     RDKit          3D

 10 10  0  0  0  0  0  0  0  0999 V2000
   23.0044    6.2211   -7.1892 N   0  0  0  0  0  0  0  0  0  0  0  0
   21.9478    6.6123   -7.0494 C   0  0  0  0  0  0  0  0  0  0  0  0
   20.5671    7.1232   -6.8668 C   0  0  0  0  0  0  0  0  0  0  0  0
   19.6780    6.3016   -5.9787 C   0  0  0  0  0  0  0  0  0  0  0  0
   19.4769    6.2913   -7.4761 C   0  0  0  0  0  0  0  0  0  0  0  0
   20.4654    8.1998   -6.8600 H   0  0  0  0  0  0  0  0  0  0  0  0
   18.9448    6.8423   -5.3945 H   0  0  0  0  0  0  0  0  0  0  0  0
   20.1090    5.4087   -5.5409 H   0  0  0  0  0  0  0  0  0  0  0  0
   19.7771    5.3923   -8.0005 H   0  0  0  0  0  0  0  0  0  0  0  0
   18.6150    6.8264   -7.8535 H   0  0  0  0  0  0  0  0  0  0  0  0
  1  2  3  0
  2  3  1  0
  3  4  1  0
  3  5  1  0
  3  6  1  0
  4  5  1  0
  4  7  1  0
  4  8  1  0
  5  9  1  0
  5 10  1  0
M  END
> <intraLJ>
-0.168    

> <intraEL>
1.810     

> <intraDihe>
1.484     

> <interLJ>
0.000     

> <interEJ>
0.000     

> <gridLJ>
-2.533    

> <gridEL>
0.000     

> <totalE>
0.593     

> <LGFE>
-2.533  

> <LE>
-0.507  

> <SMILES>
N#CC1CC1

> <atom.dprop.GFE>
-1.2 0 -0.37 -0.47 -0.46 0 0 0 0 0

> <atom.prop.CLASS>
GENA NCLA PRPC PRPC PRPC NCLA NCLA NCLA NCLA NCLA

$$$$
16
     RDKit          3D

 10 10  0  0  0  0  0  0  0  0999 V2000
   -1.2001    4.0491    7.4530 N   0  0  0  0  0  0  0  0  0  0  0  0
   -1.2356    3.2319    8.2404 C   0  0  0  0  0  0  0  0  0  0  0  0
   -1.2822    2.1643    9.2694 C   0  0  0  0  0  0  0  0  0  0  0  0
   -2.4982    1.2841    9.2437 C   0  0  0  0  0  0  0  0  0  0  0  0
   -2.3337    2.3231   10.3282 C   0  0  0  0  0  0  0  0  0  0  0  0
   -0.3275    1.7329    9.5372 H   0  0  0  0  0  0  0  0  0  0  0  0
   -2.3546    0.2518    9.5351 H   0  0  0  0  0  0  0  0  0  0  0  0
   -3.2403    1.4916    8.4814 H   0  0  0  0  0  0  0  0  0  0  0  0
   -2.9701    3.1973   10.2641 H   0  0  0  0  0  0  0  0  0  0  0  0
   -2.0833    1.9579   11.3158 H   0  0  0  0  0  0  0  0  0  0  0  0
  1  2  3  0
  2  3  1  0
  3  4  1  0
  3  5  1  0
  3  6  1  0
  4  5  1  0
  4  7  1  0
  4  8  1  0
  5  9  1  0
  5 10  1  0
M  END
> <intraLJ>
-0.168    

> <intraEL>
1.810     

> <intraDihe>
1.484     

> <interLJ>
0.000     

> <interEJ>
0.000     

> <gridLJ>
-2.443    

> <gridEL>
0.000     

> <totalE>
0.683     

> <LGFE>
-2.443  

> <LE>
-0.489  

> <SMILES>
N#CC1CC1

> <atom.dprop.GFE>
-1.1 0 -0.51 -0.43 -0.43 0 0 0 0 0

> <atom.prop.CLASS>
GENA NCLA PRPC PRPC PRPC NCLA NCLA NCLA NCLA NCLA

$$$$
16
     RDKit          3D

 10 10  0  0  0  0  0  0  0  0999 V2000
  -39.0867    8.0713   22.3430 N   0  0  0  0  0  0  0  0  0  0  0  0
  -39.1680    7.1425   21.6952 C   0  0  0  0  0  0  0  0  0  0  0  0
  -39.2746    5.9289   20.8487 C   0  0  0  0  0  0  0  0  0  0  0  0
  -39.6015    6.1669   19.4028 C   0  0  0  0  0  0  0  0  0  0  0  0
  -40.6485    5.6076   20.3375 C   0  0  0  0  0  0  0  0  0  0  0  0
  -38.6079    5.1184   21.1096 H   0  0  0  0  0  0  0  0  0  0  0  0
  -39.1700    5.4771   18.6892 H   0  0  0  0  0  0  0  0  0  0  0  0
  -39.7305    7.1967   19.0901 H   0  0  0  0  0  0  0  0  0  0  0  0
  -41.4505    6.2766   20.6248 H   0  0  0  0  0  0  0  0  0  0  0  0
  -40.8884    4.5582   20.2249 H   0  0  0  0  0  0  0  0  0  0  0  0
  1  2  3  0
  2  3  1  0
  3  4  1  0
  3  5  1  0
  3  6  1  0
  4  5  1  0
  4  7  1  0
  4  8  1  0
  5  9  1  0
  5 10  1  0
M  END
> <intraLJ>
-0.168    

> <intraEL>
1.810     

> <intraDihe>
1.484     

> <interLJ>
0.000     

> <interEJ>
0.000     

> <gridLJ>
-2.433    

> <gridEL>
0.000     

> <totalE>
0.693     

> <LGFE>
-2.433  

> <LE>
-0.487  

> <SMILES>
N#CC1CC1

> <atom.dprop.GFE>
-0.7 0 -0.56 -0.61 -0.56 0 0 0 0 0

> <atom.prop.CLASS>
GENA NCLA PRPC PRPC PRPC NCLA NCLA NCLA NCLA NCLA

$$$$
16
     RDKit          3D

 10 10  0  0  0  0  0  0  0  0999 V2000
  -23.4283    9.1115   13.2207 N   0  0  0  0  0  0  0  0  0  0  0  0
  -24.3208    8.4108   13.1830 C   0  0  0  0  0  0  0  0  0  0  0  0
  -25.4872    7.4955   13.1335 C   0  0  0  0  0  0  0  0  0  0  0  0
  -26.0517    7.2289   11.7681 C   0  0  0  0  0  0  0  0  0  0  0  0
  -26.7922    8.1213   12.7366 C   0  0  0  0  0  0  0  0  0  0  0  0
  -25.4869    6.6999   13.8659 H   0  0  0  0  0  0  0  0  0  0  0  0
  -26.4680    6.2441   11.6004 H   0  0  0  0  0  0  0  0  0  0  0  0
  -25.5673    7.7180   10.9309 H   0  0  0  0  0  0  0  0  0  0  0  0
  -26.7850    9.1829   12.5219 H   0  0  0  0  0  0  0  0  0  0  0  0
  -27.6834    7.7089   13.1918 H   0  0  0  0  0  0  0  0  0  0  0  0
  1  2  3  0
  2  3  1  0
  3  4  1  0
  3  5  1  0
  3  6  1  0
  4  5  1  0
  4  7  1  0
  4  8  1  0
  5  9  1  0
  5 10  1  0
M  END
> <intraLJ>
-0.168    

> <intraEL>
1.810     

> <intraDihe>
1.484     

> <interLJ>
0.000     

> <interEJ>
0.000     

> <gridLJ>
-2.374    

> <gridEL>
0.000     

> <totalE>
0.752     

> <LGFE>
-2.374  

> <LE>
-0.475  

> <SMILES>
N#CC1CC1

> <atom.dprop.GFE>
-1.2 0 -0.49 -0.47 -0.23 0 0 0 0 0

> <atom.prop.CLASS>
GENA NCLA PRPC PRPC PRPC NCLA NCLA NCLA NCLA NCLA

$$$$
16
     RDKit          3D

 10 10  0  0  0  0  0  0  0  0999 V2000
  -26.0378   -4.5824    5.2845 N   0  0  0  0  0  0  0  0  0  0  0  0
  -26.9086   -5.1335    4.8080 C   0  0  0  0  0  0  0  0  0  0  0  0
  -28.0467   -5.8533    4.1855 C   0  0  0  0  0  0  0  0  0  0  0  0
  -29.0777   -4.9916    3.5158 C   0  0  0  0  0  0  0  0  0  0  0  0
  -29.3824   -5.6530    4.8395 C   0  0  0  0  0  0  0  0  0  0  0  0
  -27.8103   -6.8178    3.7574 H   0  0  0  0  0  0  0  0  0  0  0  0
  -29.5628   -5.4077    2.6425 H   0  0  0  0  0  0  0  0  0  0  0  0
  -28.9123   -3.9206    3.5352 H   0  0  0  0  0  0  0  0  0  0  0  0
  -29.4141   -5.0080    5.7091 H   0  0  0  0  0  0  0  0  0  0  0  0
  -30.0624   -6.4948    4.8160 H   0  0  0  0  0  0  0  0  0  0  0  0
  1  2  3  0
  2  3  1  0
  3  4  1  0
  3  5  1  0
  3  6  1  0
  4  5  1  0
  4  7  1  0
  4  8  1  0
  5  9  1  0
  5 10  1  0
M  END
> <intraLJ>
-0.168    

> <intraEL>
1.810     

> <intraDihe>
1.484     

> <interLJ>
0.000     

> <interEJ>
0.000     

> <gridLJ>
-2.377    

> <gridEL>
0.000     

> <totalE>
0.749     

> <LGFE>
-2.377  

> <LE>
-0.475  

> <SMILES>
N#CC1CC1

> <atom.dprop.GFE>
-1.4 0 -0.37 -0.35 -0.27 0 0 0 0 0

> <atom.prop.CLASS>
GENA NCLA PRPC PRPC PRPC NCLA NCLA NCLA NCLA NCLA

$$$$
16
     RDKit          3D

 10 10  0  0  0  0  0  0  0  0999 V2000
   22.0023    4.1312  -31.6439 N   0  0  0  0  0  0  0  0  0  0  0  0
   22.3964    3.3241  -30.9494 C   0  0  0  0  0  0  0  0  0  0  0  0
   22.9110    2.2695  -30.0417 C   0  0  0  0  0  0  0  0  0  0  0  0
   21.9675    1.1381  -29.7526 C   0  0  0  0  0  0  0  0  0  0  0  0
   22.2479    2.1833  -28.6983 C   0  0  0  0  0  0  0  0  0  0  0  0
   23.9697    2.0633  -30.1196 H   0  0  0  0  0  0  0  0  0  0  0  0
   22.4128    0.1636  -29.6001 H   0  0  0  0  0  0  0  0  0  0  0  0
   20.9934    1.1759  -30.2264 H   0  0  0  0  0  0  0  0  0  0  0  0
   21.4546    2.8918  -28.4935 H   0  0  0  0  0  0  0  0  0  0  0  0
   22.8743    1.8802  -27.8693 H   0  0  0  0  0  0  0  0  0  0  0  0
  1  2  3  0
  2  3  1  0
  3  4  1  0
  3  5  1  0
  3  6  1  0
  4  5  1  0
  4  7  1  0
  4  8  1  0
  5  9  1  0
  5 10  1  0
M  END
> <intraLJ>
-0.168    

> <intraEL>
1.810     

> <intraDihe>
1.484     

> <interLJ>
0.000     

> <interEJ>
0.000     

> <gridLJ>
-2.379    

> <gridEL>
0.000     

> <totalE>
0.746     

> <LGFE>
-2.379  

> <LE>
-0.476  

> <SMILES>
N#CC1CC1

> <atom.dprop.GFE>
-1.5 0 -0.36 -0.26 -0.27 0 0 0 0 0

> <atom.prop.CLASS>
GENA NCLA PRPC PRPC PRPC NCLA NCLA NCLA NCLA NCLA

$$$$
16
     RDKit          3D

 10 10  0  0  0  0  0  0  0  0999 V2000
    9.4023   12.8440  -35.6985 N   0  0  0  0  0  0  0  0  0  0  0  0
    8.3334   12.9495  -36.0664 C   0  0  0  0  0  0  0  0  0  0  0  0
    6.9367   13.0871  -36.5472 C   0  0  0  0  0  0  0  0  0  0  0  0
    5.9168   12.2383  -35.8446 C   0  0  0  0  0  0  0  0  0  0  0  0
    6.3647   11.8875  -37.2443 C   0  0  0  0  0  0  0  0  0  0  0  0
    6.6548   14.0751  -36.8844 H   0  0  0  0  0  0  0  0  0  0  0  0
    4.9245   12.6582  -35.7438 H   0  0  0  0  0  0  0  0  0  0  0  0
    6.2744   11.5986  -35.0461 H   0  0  0  0  0  0  0  0  0  0  0  0
    7.0087   11.0225  -37.3459 H   0  0  0  0  0  0  0  0  0  0  0  0
    5.6603   12.0834  -38.0424 H   0  0  0  0  0  0  0  0  0  0  0  0
  1  2  3  0
  2  3  1  0
  3  4  1  0
  3  5  1  0
  3  6  1  0
  4  5  1  0
  4  7  1  0
  4  8  1  0
  5  9  1  0
  5 10  1  0
M  END
> <intraLJ>
-0.168    

> <intraEL>
1.810     

> <intraDihe>
1.484     

> <interLJ>
0.000     

> <interEJ>
0.000     

> <gridLJ>
-2.338    

> <gridEL>
0.000     

> <totalE>
0.788     

> <LGFE>
-2.338  

> <LE>
-0.468  

> <SMILES>
N#CC1CC1

> <atom.dprop.GFE>
-1.6 0 -0.29 -0.26 -0.23 0 0 0 0 0

> <atom.prop.CLASS>
GENA NCLA PRPC PRPC PRPC NCLA NCLA NCLA NCLA NCLA

$$$$
16
     RDKit          3D

 10 10  0  0  0  0  0  0  0  0999 V2000
  -21.4960    7.1283  -10.6382 N   0  0  0  0  0  0  0  0  0  0  0  0
  -21.2886    6.4150   -9.7795 C   0  0  0  0  0  0  0  0  0  0  0  0
  -21.0177    5.4828   -8.6577 C   0  0  0  0  0  0  0  0  0  0  0  0
  -20.3317    4.1990   -9.0255 C   0  0  0  0  0  0  0  0  0  0  0  0
  -21.7999    4.2022   -8.6691 C   0  0  0  0  0  0  0  0  0  0  0  0
  -20.7860    5.9489   -7.7098 H   0  0  0  0  0  0  0  0  0  0  0  0
  -19.6549    3.7840   -8.2900 H   0  0  0  0  0  0  0  0  0  0  0  0
  -20.0865    4.0537  -10.0712 H   0  0  0  0  0  0  0  0  0  0  0  0
  -22.4982    4.0581   -9.4846 H   0  0  0  0  0  0  0  0  0  0  0  0
  -22.0658    3.7903   -7.7042 H   0  0  0  0  0  0  0  0  0  0  0  0
  1  2  3  0
  2  3  1  0
  3  4  1  0
  3  5  1  0
  3  6  1  0
  4  5  1  0
  4  7  1  0
  4  8  1  0
  5  9  1  0
  5 10  1  0
M  END
> <intraLJ>
-0.168    

> <intraEL>
1.810     

> <intraDihe>
1.484     

> <interLJ>
0.000     

> <interEJ>
0.000     

> <gridLJ>
-2.373    

> <gridEL>
0.000     

> <totalE>
0.753     

> <LGFE>
-2.373  

> <LE>
-0.475  

> <SMILES>
N#CC1CC1

> <atom.dprop.GFE>
-0.94 0 -0.51 -0.44 -0.49 0 0 0 0 0

> <atom.prop.CLASS>
GENA NCLA PRPC PRPC PRPC NCLA NCLA NCLA NCLA NCLA

$$$$
16
     RDKit          3D

 10 10  0  0  0  0  0  0  0  0999 V2000
   22.9502    5.1801   -6.7433 N   0  0  0  0  0  0  0  0  0  0  0  0
   23.1343    6.1357   -7.3281 C   0  0  0  0  0  0  0  0  0  0  0  0
   23.3751    7.3844   -8.0921 C   0  0  0  0  0  0  0  0  0  0  0  0
   24.3569    7.2797   -9.2231 C   0  0  0  0  0  0  0  0  0  0  0  0
   24.7415    7.9870   -7.9447 C   0  0  0  0  0  0  0  0  0  0  0  0
   22.5206    8.0386   -8.1975 H   0  0  0  0  0  0  0  0  0  0  0  0
   24.1693    7.9053  -10.0861 H   0  0  0  0  0  0  0  0  0  0  0  0
   24.8080    6.3094   -9.3955 H   0  0  0  0  0  0  0  0  0  0  0  0
   25.4401    7.4727   -7.2961 H   0  0  0  0  0  0  0  0  0  0  0  0
   24.7998    9.0670   -7.9864 H   0  0  0  0  0  0  0  0  0  0  0  0
  1  2  3  0
  2  3  1  0
  3  4  1  0
  3  5  1  0
  3  6  1  0
  4  5  1  0
  4  7  1  0
  4  8  1  0
  5  9  1  0
  5 10  1  0
M  END
> <intraLJ>
-0.168    

> <intraEL>
1.810     

> <intraDihe>
1.484     

> <interLJ>
0.000     

> <interEJ>
0.000     

> <gridLJ>
-2.279    

> <gridEL>
0.000     

> <totalE>
0.846     

> <LGFE>
-2.279  

> <LE>
-0.456  

> <SMILES>
N#CC1CC1

> <atom.dprop.GFE>
-1.1 0 -0.4 -0.41 -0.38 0 0 0 0 0

> <atom.prop.CLASS>
GENA NCLA PRPC PRPC PRPC NCLA NCLA NCLA NCLA NCLA

$$$$
16
     RDKit          3D

 10 10  0  0  0  0  0  0  0  0999 V2000
   -5.2136   -7.7476    2.4967 N   0  0  0  0  0  0  0  0  0  0  0  0
   -5.3046   -8.8743    2.6032 C   0  0  0  0  0  0  0  0  0  0  0  0
   -5.4239  -10.3464    2.7422 C   0  0  0  0  0  0  0  0  0  0  0  0
   -5.4510  -11.1243    1.4584 C   0  0  0  0  0  0  0  0  0  0  0  0
   -6.7150  -10.9450    2.2663 C   0  0  0  0  0  0  0  0  0  0  0  0
   -4.9324  -10.7746    3.6051 H   0  0  0  0  0  0  0  0  0  0  0  0
   -4.9978  -12.1069    1.4783 H   0  0  0  0  0  0  0  0  0  0  0  0
   -5.3792  -10.5573    0.5375 H   0  0  0  0  0  0  0  0  0  0  0  0
   -7.4558  -10.2644    1.8648 H   0  0  0  0  0  0  0  0  0  0  0  0
   -7.0729  -11.8123    2.8060 H   0  0  0  0  0  0  0  0  0  0  0  0
  1  2  3  0
  2  3  1  0
  3  4  1  0
  3  5  1  0
  3  6  1  0
  4  5  1  0
  4  7  1  0
  4  8  1  0
  5  9  1  0
  5 10  1  0
M  END
> <intraLJ>
-0.168    

> <intraEL>
1.810     

> <intraDihe>
1.484     

> <interLJ>
0.000     

> <interEJ>
0.000     

> <gridLJ>
-2.205    

> <gridEL>
0.000     

> <totalE>
0.921     

> <LGFE>
-2.205  

> <LE>
-0.441  

> <SMILES>
N#CC1CC1

> <atom.dprop.GFE>
-1.3 0 -0.22 -0.33 -0.41 0 0 0 0 0

> <atom.prop.CLASS>
GENA NCLA PRPC PRPC PRPC NCLA NCLA NCLA NCLA NCLA

$$$$
16
     RDKit          3D

 10 10  0  0  0  0  0  0  0  0999 V2000
   23.7490    6.4657   -6.8935 N   0  0  0  0  0  0  0  0  0  0  0  0
   22.6673    6.3315   -7.2111 C   0  0  0  0  0  0  0  0  0  0  0  0
   21.2538    6.1560   -7.6259 C   0  0  0  0  0  0  0  0  0  0  0  0
   20.2215    6.6630   -6.6608 C   0  0  0  0  0  0  0  0  0  0  0  0
   20.4524    5.1782   -6.8174 C   0  0  0  0  0  0  0  0  0  0  0  0
   21.0656    6.2393   -8.6875 H   0  0  0  0  0  0  0  0  0  0  0  0
   19.3112    7.0603   -7.0905 H   0  0  0  0  0  0  0  0  0  0  0  0
   20.5837    7.1166   -5.7455 H   0  0  0  0  0  0  0  0  0  0  0  0
   20.9617    4.6771   -6.0032 H   0  0  0  0  0  0  0  0  0  0  0  0
   19.6908    4.6222   -7.3488 H   0  0  0  0  0  0  0  0  0  0  0  0
  1  2  3  0
  2  3  1  0
  3  4  1  0
  3  5  1  0
  3  6  1  0
  4  5  1  0
  4  7  1  0
  4  8  1  0
  5  9  1  0
  5 10  1  0
M  END
> <intraLJ>
-0.168    

> <intraEL>
1.810     

> <intraDihe>
1.484     

> <interLJ>
0.000     

> <interEJ>
0.000     

> <gridLJ>
-2.226    

> <gridEL>
0.000     

> <totalE>
0.900     

> <LGFE>
-2.226  

> <LE>
-0.445  

> <SMILES>
N#CC1CC1

> <atom.dprop.GFE>
-1.2 0 -0.29 -0.37 -0.33 0 0 0 0 0

> <atom.prop.CLASS>
GENA NCLA PRPC PRPC PRPC NCLA NCLA NCLA NCLA NCLA

$$$$
16
     RDKit          3D

 10 10  0  0  0  0  0  0  0  0999 V2000
  -12.3526    1.0743   19.8988 N   0  0  0  0  0  0  0  0  0  0  0  0
  -13.1299    1.0889   20.7262 C   0  0  0  0  0  0  0  0  0  0  0  0
  -14.1459    1.1078   21.8070 C   0  0  0  0  0  0  0  0  0  0  0  0
  -14.5901   -0.2351   22.3103 C   0  0  0  0  0  0  0  0  0  0  0  0
  -15.5046    0.5902   21.4355 C   0  0  0  0  0  0  0  0  0  0  0  0
  -14.0695    1.9308   22.5044 H   0  0  0  0  0  0  0  0  0  0  0  0
  -14.8485   -0.2974   23.3594 H   0  0  0  0  0  0  0  0  0  0  0  0
  -14.1373   -1.1069   21.8526 H   0  0  0  0  0  0  0  0  0  0  0  0
  -15.6406    0.2488   20.4166 H   0  0  0  0  0  0  0  0  0  0  0  0
  -16.3496    1.0589   21.9231 H   0  0  0  0  0  0  0  0  0  0  0  0
  1  2  3  0
  2  3  1  0
  3  4  1  0
  3  5  1  0
  3  6  1  0
  4  5  1  0
  4  7  1  0
  4  8  1  0
  5  9  1  0
  5 10  1  0
M  END
> <intraLJ>
-0.168    

> <intraEL>
1.810     

> <intraDihe>
1.484     

> <interLJ>
0.000     

> <interEJ>
0.000     

> <gridLJ>
-2.212    

> <gridEL>
0.000     

> <totalE>
0.913     

> <LGFE>
-2.212  

> <LE>
-0.442  

> <SMILES>
N#CC1CC1

> <atom.dprop.GFE>
-1 0 -0.34 -0.33 -0.5 0 0 0 0 0

> <atom.prop.CLASS>
GENA NCLA PRPC PRPC PRPC NCLA NCLA NCLA NCLA NCLA

$$$$
16
     RDKit          3D

 10 10  0  0  0  0  0  0  0  0999 V2000
   -7.9893   -9.2563    2.9402 N   0  0  0  0  0  0  0  0  0  0  0  0
   -8.4388  -10.2698    2.6953 C   0  0  0  0  0  0  0  0  0  0  0  0
   -9.0257  -11.5941    2.3752 C   0  0  0  0  0  0  0  0  0  0  0  0
   -8.7071  -12.7005    3.3387 C   0  0  0  0  0  0  0  0  0  0  0  0
   -8.0495  -12.6627    1.9790 C   0  0  0  0  0  0  0  0  0  0  0  0
   -9.9995  -11.5712    1.9055 H   0  0  0  0  0  0  0  0  0  0  0  0
   -9.4740  -13.4497    3.4860 H   0  0  0  0  0  0  0  0  0  0  0  0
   -8.0815  -12.4495    4.1874 H   0  0  0  0  0  0  0  0  0  0  0  0
   -7.0019  -12.3888    1.9534 H   0  0  0  0  0  0  0  0  0  0  0  0
   -8.3951  -13.3870    1.2527 H   0  0  0  0  0  0  0  0  0  0  0  0
  1  2  3  0
  2  3  1  0
  3  4  1  0
  3  5  1  0
  3  6  1  0
  4  5  1  0
  4  7  1  0
  4  8  1  0
  5  9  1  0
  5 10  1  0
M  END
> <intraLJ>
-0.168    

> <intraEL>
1.810     

> <intraDihe>
1.484     

> <interLJ>
0.000     

> <interEJ>
0.000     

> <gridLJ>
-2.159    

> <gridEL>
0.000     

> <totalE>
0.967     

> <LGFE>
-2.159  

> <LE>
-0.432  

> <SMILES>
N#CC1CC1

> <atom.dprop.GFE>
-1 0 -0.36 -0.37 -0.41 0 0 0 0 0

> <atom.prop.CLASS>
GENA NCLA PRPC PRPC PRPC NCLA NCLA NCLA NCLA NCLA

$$$$
16
     RDKit          3D

 10 10  0  0  0  0  0  0  0  0999 V2000
  -26.1429  -16.9194   10.3900 N   0  0  0  0  0  0  0  0  0  0  0  0
  -25.9600  -17.3105    9.3399 C   0  0  0  0  0  0  0  0  0  0  0  0
  -25.7211  -17.8212    7.9677 C   0  0  0  0  0  0  0  0  0  0  0  0
  -24.6182  -17.1486    7.2026 C   0  0  0  0  0  0  0  0  0  0  0  0
  -26.0626  -16.8785    6.8512 C   0  0  0  0  0  0  0  0  0  0  0  0
  -25.8852  -18.8811    7.8296 H   0  0  0  0  0  0  0  0  0  0  0  0
  -24.0593  -17.7687    6.5138 H   0  0  0  0  0  0  0  0  0  0  0  0
  -24.0842  -16.3515    7.7067 H   0  0  0  0  0  0  0  0  0  0  0  0
  -26.4567  -15.9083    7.1280 H   0  0  0  0  0  0  0  0  0  0  0  0
  -26.4314  -17.3261    5.9373 H   0  0  0  0  0  0  0  0  0  0  0  0
  1  2  3  0
  2  3  1  0
  3  4  1  0
  3  5  1  0
  3  6  1  0
  4  5  1  0
  4  7  1  0
  4  8  1  0
  5  9  1  0
  5 10  1  0
M  END
> <intraLJ>
-0.168    

> <intraEL>
1.810     

> <intraDihe>
1.484     

> <interLJ>
0.000     

> <interEJ>
0.000     

> <gridLJ>
-2.144    

> <gridEL>
0.000     

> <totalE>
0.982     

> <LGFE>
-2.144  

> <LE>
-0.429  

> <SMILES>
N#CC1CC1

> <atom.dprop.GFE>
-0.88 0 -0.39 -0.43 -0.44 0 0 0 0 0

> <atom.prop.CLASS>
GENA NCLA PRPC PRPC PRPC NCLA NCLA NCLA NCLA NCLA

$$$$
16
     RDKit          3D

 10 10  0  0  0  0  0  0  0  0999 V2000
    2.9568    8.0957  -28.0691 N   0  0  0  0  0  0  0  0  0  0  0  0
    2.6596    8.2615  -26.9860 C   0  0  0  0  0  0  0  0  0  0  0  0
    2.2709    8.4780  -25.5708 C   0  0  0  0  0  0  0  0  0  0  0  0
    2.3813    7.2805  -24.6720 C   0  0  0  0  0  0  0  0  0  0  0  0
    1.0251    7.7730  -25.1203 C   0  0  0  0  0  0  0  0  0  0  0  0
    2.4948    9.4573  -25.1704 H   0  0  0  0  0  0  0  0  0  0  0  0
    2.6506    7.4721  -23.6414 H   0  0  0  0  0  0  0  0  0  0  0  0
    2.7355    6.3594  -25.1201 H   0  0  0  0  0  0  0  0  0  0  0  0
    0.5074    7.1687  -25.8552 H   0  0  0  0  0  0  0  0  0  0  0  0
    0.4241    8.2819  -24.3779 H   0  0  0  0  0  0  0  0  0  0  0  0
  1  2  3  0
  2  3  1  0
  3  4  1  0
  3  5  1  0
  3  6  1  0
  4  5  1  0
  4  7  1  0
  4  8  1  0
  5  9  1  0
  5 10  1  0
M  END
> <intraLJ>
-0.168    

> <intraEL>
1.810     

> <intraDihe>
1.484     

> <interLJ>
0.000     

> <interEJ>
0.000     

> <gridLJ>
-2.182    

> <gridEL>
0.000     

> <totalE>
0.944     

> <LGFE>
-2.182  

> <LE>
-0.436  

> <SMILES>
N#CC1CC1

> <atom.dprop.GFE>
-1.3 0 -0.31 -0.29 -0.24 0 0 0 0 0

> <atom.prop.CLASS>
GENA NCLA PRPC PRPC PRPC NCLA NCLA NCLA NCLA NCLA

$$$$
16
     RDKit          3D

 10 10  0  0  0  0  0  0  0  0999 V2000
  -16.9300   -6.6784   -7.4403 N   0  0  0  0  0  0  0  0  0  0  0  0
  -17.3072   -7.7275   -7.6556 C   0  0  0  0  0  0  0  0  0  0  0  0
  -17.8000   -9.0981   -7.9371 C   0  0  0  0  0  0  0  0  0  0  0  0
  -16.8473   -9.9977   -8.6701 C   0  0  0  0  0  0  0  0  0  0  0  0
  -18.0479   -9.4192   -9.3819 C   0  0  0  0  0  0  0  0  0  0  0  0
  -18.4503   -9.5235   -7.1850 H   0  0  0  0  0  0  0  0  0  0  0  0
  -16.8901  -11.0508   -8.4243 H   0  0  0  0  0  0  0  0  0  0  0  0
  -15.8811   -9.5826   -8.9324 H   0  0  0  0  0  0  0  0  0  0  0  0
  -17.8538   -8.6337  -10.1020 H   0  0  0  0  0  0  0  0  0  0  0  0
  -18.8621  -10.1007   -9.5922 H   0  0  0  0  0  0  0  0  0  0  0  0
  1  2  3  0
  2  3  1  0
  3  4  1  0
  3  5  1  0
  3  6  1  0
  4  5  1  0
  4  7  1  0
  4  8  1  0
  5  9  1  0
  5 10  1  0
M  END
> <intraLJ>
-0.168    

> <intraEL>
1.810     

> <intraDihe>
1.484     

> <interLJ>
0.000     

> <interEJ>
0.000     

> <gridLJ>
-2.111    

> <gridEL>
0.000     

> <totalE>
1.015     

> <LGFE>
-2.111  

> <LE>
-0.422  

> <SMILES>
N#CC1CC1

> <atom.dprop.GFE>
-1.5 0 -0.19 -0.22 -0.21 0 0 0 0 0

> <atom.prop.CLASS>
GENA NCLA PRPC PRPC PRPC NCLA NCLA NCLA NCLA NCLA

$$$$
16
     RDKit          3D

 10 10  0  0  0  0  0  0  0  0999 V2000
   -6.1294   12.1085   -7.7320 N   0  0  0  0  0  0  0  0  0  0  0  0
   -6.5990   11.2923   -8.3662 C   0  0  0  0  0  0  0  0  0  0  0  0
   -7.2125   10.2259   -9.1952 C   0  0  0  0  0  0  0  0  0  0  0  0
   -6.3204    9.6110  -10.2344 C   0  0  0  0  0  0  0  0  0  0  0  0
   -7.4208   10.5623  -10.6427 C   0  0  0  0  0  0  0  0  0  0  0  0
   -7.9379    9.6025   -8.6906 H   0  0  0  0  0  0  0  0  0  0  0  0
   -6.4804    8.5627  -10.4506 H   0  0  0  0  0  0  0  0  0  0  0  0
   -5.3058    9.9869  -10.2973 H   0  0  0  0  0  0  0  0  0  0  0  0
   -7.1142   11.5486  -10.9689 H   0  0  0  0  0  0  0  0  0  0  0  0
   -8.2881   10.1247  -11.1200 H   0  0  0  0  0  0  0  0  0  0  0  0
  1  2  3  0
  2  3  1  0
  3  4  1  0
  3  5  1  0
  3  6  1  0
  4  5  1  0
  4  7  1  0
  4  8  1  0
  5  9  1  0
  5 10  1  0
M  END
> <intraLJ>
-0.168    

> <intraEL>
1.810     

> <intraDihe>
1.484     

> <interLJ>
0.000     

> <interEJ>
0.000     

> <gridLJ>
-2.104    

> <gridEL>
0.000     

> <totalE>
1.021     

> <LGFE>
-2.104  

> <LE>
-0.421  

> <SMILES>
N#CC1CC1

> <atom.dprop.GFE>
-0.86 0 -0.43 -0.39 -0.43 0 0 0 0 0

> <atom.prop.CLASS>
GENA NCLA PRPC PRPC PRPC NCLA NCLA NCLA NCLA NCLA

$$$$
16
     RDKit          3D

 10 10  0  0  0  0  0  0  0  0999 V2000
   24.9023   15.1555   -7.3480 N   0  0  0  0  0  0  0  0  0  0  0  0
   24.3202   15.0597   -6.3778 C   0  0  0  0  0  0  0  0  0  0  0  0
   23.5596   14.9348   -5.1103 C   0  0  0  0  0  0  0  0  0  0  0  0
   22.0655   14.8793   -5.2472 C   0  0  0  0  0  0  0  0  0  0  0  0
   22.7357   16.1276   -4.7227 C   0  0  0  0  0  0  0  0  0  0  0  0
   24.0377   14.3517   -4.3352 H   0  0  0  0  0  0  0  0  0  0  0  0
   21.5355   14.2729   -4.5242 H   0  0  0  0  0  0  0  0  0  0  0  0
   21.6607   14.9312   -6.2513 H   0  0  0  0  0  0  0  0  0  0  0  0
   22.7609   16.9818   -5.3883 H   0  0  0  0  0  0  0  0  0  0  0  0
   22.6370   16.3222   -3.6625 H   0  0  0  0  0  0  0  0  0  0  0  0
  1  2  3  0
  2  3  1  0
  3  4  1  0
  3  5  1  0
  3  6  1  0
  4  5  1  0
  4  7  1  0
  4  8  1  0
  5  9  1  0
  5 10  1  0
M  END
> <intraLJ>
-0.168    

> <intraEL>
1.810     

> <intraDihe>
1.484     

> <interLJ>
0.000     

> <interEJ>
0.000     

> <gridLJ>
-2.099    

> <gridEL>
0.000     

> <totalE>
1.027     

> <LGFE>
-2.099  

> <LE>
-0.420  

> <SMILES>
N#CC1CC1

> <atom.dprop.GFE>
-0.76 0 -0.36 -0.51 -0.47 0 0 0 0 0

> <atom.prop.CLASS>
GENA NCLA PRPC PRPC PRPC NCLA NCLA NCLA NCLA NCLA

$$$$
16
     RDKit          3D

 10 10  0  0  0  0  0  0  0  0999 V2000
  -26.8588    3.4501    6.9037 N   0  0  0  0  0  0  0  0  0  0  0  0
  -26.9984    2.5792    6.1889 C   0  0  0  0  0  0  0  0  0  0  0  0
  -27.1812    1.4413    5.2548 C   0  0  0  0  0  0  0  0  0  0  0  0
  -28.0307    1.7161    4.0478 C   0  0  0  0  0  0  0  0  0  0  0  0
  -28.5683    0.8734    5.1807 C   0  0  0  0  0  0  0  0  0  0  0  0
  -26.3347    0.7751    5.1602 H   0  0  0  0  0  0  0  0  0  0  0  0
  -27.7635    1.1933    3.1387 H   0  0  0  0  0  0  0  0  0  0  0  0
  -28.4391    2.7153    3.9502 H   0  0  0  0  0  0  0  0  0  0  0  0
  -29.3224    1.3297    5.8103 H   0  0  0  0  0  0  0  0  0  0  0  0
  -28.6451   -0.1909    4.9994 H   0  0  0  0  0  0  0  0  0  0  0  0
  1  2  3  0
  2  3  1  0
  3  4  1  0
  3  5  1  0
  3  6  1  0
  4  5  1  0
  4  7  1  0
  4  8  1  0
  5  9  1  0
  5 10  1  0
M  END
> <intraLJ>
-0.168    

> <intraEL>
1.810     

> <intraDihe>
1.484     

> <interLJ>
0.000     

> <interEJ>
0.000     

> <gridLJ>
-2.066    

> <gridEL>
0.000     

> <totalE>
1.059     

> <LGFE>
-2.066  

> <LE>
-0.413  

> <SMILES>
N#CC1CC1

> <atom.dprop.GFE>
-0.86 0 -0.42 -0.37 -0.41 0 0 0 0 0

> <atom.prop.CLASS>
GENA NCLA PRPC PRPC PRPC NCLA NCLA NCLA NCLA NCLA

$$$$
16
     RDKit          3D

 10 10  0  0  0  0  0  0  0  0999 V2000
  -39.4733   -3.5268   25.6128 N   0  0  0  0  0  0  0  0  0  0  0  0
  -39.3462   -2.5087   26.0991 C   0  0  0  0  0  0  0  0  0  0  0  0
  -39.1804   -1.1785   26.7345 C   0  0  0  0  0  0  0  0  0  0  0  0
  -39.6593   -1.0673   28.1531 C   0  0  0  0  0  0  0  0  0  0  0  0
  -40.4490   -0.4339   27.0316 C   0  0  0  0  0  0  0  0  0  0  0  0
  -38.3035   -0.6230   26.4315 H   0  0  0  0  0  0  0  0  0  0  0  0
  -39.1087   -0.3953   28.7984 H   0  0  0  0  0  0  0  0  0  0  0  0
  -40.0825   -1.9588   28.6013 H   0  0  0  0  0  0  0  0  0  0  0  0
  -41.3796   -0.9169   26.7596 H   0  0  0  0  0  0  0  0  0  0  0  0
  -40.4046    0.6449   26.9561 H   0  0  0  0  0  0  0  0  0  0  0  0
  1  2  3  0
  2  3  1  0
  3  4  1  0
  3  5  1  0
  3  6  1  0
  4  5  1  0
  4  7  1  0
  4  8  1  0
  5  9  1  0
  5 10  1  0
M  END
> <intraLJ>
-0.168    

> <intraEL>
1.810     

> <intraDihe>
1.484     

> <interLJ>
0.000     

> <interEJ>
0.000     

> <gridLJ>
-2.044    

> <gridEL>
0.000     

> <totalE>
1.082     

> <LGFE>
-2.044  

> <LE>
-0.409  

> <SMILES>
N#CC1CC1

> <atom.dprop.GFE>
-0.71 0 -0.49 -0.43 -0.41 0 0 0 0 0

> <atom.prop.CLASS>
GENA NCLA PRPC PRPC PRPC NCLA NCLA NCLA NCLA NCLA

$$$$
16
     RDKit          3D

 10 10  0  0  0  0  0  0  0  0999 V2000
   11.4794    7.1432  -41.2446 N   0  0  0  0  0  0  0  0  0  0  0  0
   11.8052    6.4367  -42.0715 C   0  0  0  0  0  0  0  0  0  0  0  0
   12.2312    5.5136  -43.1518 C   0  0  0  0  0  0  0  0  0  0  0  0
   12.6569    4.1431  -42.7107 C   0  0  0  0  0  0  0  0  0  0  0  0
   13.6872    5.1507  -43.1645 C   0  0  0  0  0  0  0  0  0  0  0  0
   11.7086    5.6236  -44.0921 H   0  0  0  0  0  0  0  0  0  0  0  0
   12.4434    3.3281  -43.3899 H   0  0  0  0  0  0  0  0  0  0  0  0
   12.6183    3.9337  -41.6479 H   0  0  0  0  0  0  0  0  0  0  0  0
   14.3113    5.5879  -42.3946 H   0  0  0  0  0  0  0  0  0  0  0  0
   14.1345    4.9832  -44.1358 H   0  0  0  0  0  0  0  0  0  0  0  0
  1  2  3  0
  2  3  1  0
  3  4  1  0
  3  5  1  0
  3  6  1  0
  4  5  1  0
  4  7  1  0
  4  8  1  0
  5  9  1  0
  5 10  1  0
M  END
> <intraLJ>
-0.168    

> <intraEL>
1.810     

> <intraDihe>
1.484     

> <interLJ>
0.000     

> <interEJ>
0.000     

> <gridLJ>
-2.001    

> <gridEL>
0.000     

> <totalE>
1.125     

> <LGFE>
-2.001  

> <LE>
-0.400  

> <SMILES>
N#CC1CC1

> <atom.dprop.GFE>
-0.93 0 -0.37 -0.34 -0.37 0 0 0 0 0

> <atom.prop.CLASS>
GENA NCLA PRPC PRPC PRPC NCLA NCLA NCLA NCLA NCLA

$$$$
