21_1
     RDKit          3D

 17 16  0  0  0  0  0  0  0  0999 V2000
  -17.6526    7.0194   -4.4342 C   0  0  0  0  0  0  0  0  0  0  0  0
  -18.0072    6.9228   -2.9360 C   0  0  0  0  0  0  0  0  0  0  0  0
  -18.9828    8.0758   -2.6020 C   0  0  0  0  0  0  0  0  0  0  0  0
  -16.7204    7.0543   -2.1204 C   0  0  0  0  0  0  0  0  0  0  0  0
  -16.2917    6.1766   -1.3080 N   0  0  0  0  0  0  0  0  0  0  0  0
  -15.0848    6.3731   -0.6793 O   0  0  0  0  0  0  0  0  0  0  0  0
  -16.0337    8.2452   -2.2520 N   0  0  0  0  0  0  0  0  0  0  0  0
  -18.5690    6.9403   -5.0199 H   0  0  0  0  0  0  0  0  0  0  0  0
  -16.9759    6.2029   -4.6877 H   0  0  0  0  0  0  0  0  0  0  0  0
  -17.1649    7.9791   -4.6211 H   0  0  0  0  0  0  0  0  0  0  0  0
  -18.4843    5.9759   -2.7216 H   0  0  0  0  0  0  0  0  0  0  0  0
  -18.5207    9.0304   -2.8613 H   0  0  0  0  0  0  0  0  0  0  0  0
  -19.1947    8.0453   -1.5325 H   0  0  0  0  0  0  0  0  0  0  0  0
  -19.9026    7.9350   -3.1704 H   0  0  0  0  0  0  0  0  0  0  0  0
  -14.5921    7.0171   -1.2307 H   0  0  0  0  0  0  0  0  0  0  0  0
  -15.6641    8.5569   -1.3449 H   0  0  0  0  0  0  0  0  0  0  0  0
  -16.5744    8.9688   -2.7406 H   0  0  0  0  0  0  0  0  0  0  0  0
  1  2  1  0
  1  8  1  0
  1  9  1  0
  1 10  1  0
  2  3  1  0
  2  4  1  0
  2 11  1  0
  3 12  1  0
  3 13  1  0
  3 14  1  0
  4  5  2  0
  4  7  1  0
  5  6  1  0
  6 15  1  0
  7 16  1  0
  7 17  1  0
M  END
> <intraLJ>
7.547     

> <intraEL>
0.137     

> <intraDihe>
5.064     

> <interLJ>
0.000     

> <interEJ>
0.000     

> <gridLJ>
-6.262    

> <gridEL>
0.000     

> <totalE>
6.486     

> <LGFE>
-6.262  

> <LE>
-0.895  

> <SMILES>
CC(C)C(N)=NO

> <atom.dprop.GFE>
-0.37 -0.58 -0.44 0 -1.9 -1.6 -1.4 0 0 0 0 0 0 0 0 0 0

> <atom.prop.CLASS>
PRPC PRPC PRPC NCLA GENA MEOO GEND NCLA NCLA NCLA NCLA NCLA NCLA NCLA NCLA NCLA NCLA

$$$$
21_1
     RDKit          3D

 17 16  0  0  0  0  0  0  0  0999 V2000
   -0.0412   -3.7383   -2.7100 C   0  0  0  0  0  0  0  0  0  0  0  0
   -0.0309   -4.2436   -4.1674 C   0  0  0  0  0  0  0  0  0  0  0  0
    0.4635   -5.7093   -4.1599 C   0  0  0  0  0  0  0  0  0  0  0  0
    0.9150   -3.3615   -4.9831 C   0  0  0  0  0  0  0  0  0  0  0  0
    0.5712   -2.6962   -6.0095 N   0  0  0  0  0  0  0  0  0  0  0  0
    1.4930   -1.8822   -6.6244 O   0  0  0  0  0  0  0  0  0  0  0  0
    2.2384   -3.3581   -4.5885 N   0  0  0  0  0  0  0  0  0  0  0  0
   -0.7038   -4.3731   -2.1206 H   0  0  0  0  0  0  0  0  0  0  0  0
   -0.4021   -2.7094   -2.6981 H   0  0  0  0  0  0  0  0  0  0  0  0
    0.9760   -3.7809   -2.3136 H   0  0  0  0  0  0  0  0  0  0  0  0
   -1.0268   -4.2032   -4.5876 H   0  0  0  0  0  0  0  0  0  0  0  0
    1.4495   -5.7586   -3.6936 H   0  0  0  0  0  0  0  0  0  0  0  0
    0.5246   -6.0547   -5.1927 H   0  0  0  0  0  0  0  0  0  0  0  0
   -0.2485   -6.3186   -3.6026 H   0  0  0  0  0  0  0  0  0  0  0  0
    2.1821   -1.6950   -5.9525 H   0  0  0  0  0  0  0  0  0  0  0  0
    2.8638   -3.3587   -5.4043 H   0  0  0  0  0  0  0  0  0  0  0  0
    2.4568   -4.0963   -3.9088 H   0  0  0  0  0  0  0  0  0  0  0  0
  1  2  1  0
  1  8  1  0
  1  9  1  0
  1 10  1  0
  2  3  1  0
  2  4  1  0
  2 11  1  0
  3 12  1  0
  3 13  1  0
  3 14  1  0
  4  5  2  0
  4  7  1  0
  5  6  1  0
  6 15  1  0
  7 16  1  0
  7 17  1  0
M  END
> <intraLJ>
7.547     

> <intraEL>
0.137     

> <intraDihe>
5.065     

> <interLJ>
0.000     

> <interEJ>
0.000     

> <gridLJ>
-5.478    

> <gridEL>
0.000     

> <totalE>
7.270     

> <LGFE>
-5.478  

> <LE>
-0.783  

> <SMILES>
CC(C)C(N)=NO

> <atom.dprop.GFE>
-0.33 -0.44 -0.18 0 -1.8 -1.8 -0.97 0 0 0 0 0 0 0 0 0 0

> <atom.prop.CLASS>
PRPC PRPC PRPC NCLA GENA MEOO GEND NCLA NCLA NCLA NCLA NCLA NCLA NCLA NCLA NCLA NCLA

$$$$
21_1
     RDKit          3D

 17 16  0  0  0  0  0  0  0  0999 V2000
  -18.5774    1.1176   22.0603 C   0  0  0  0  0  0  0  0  0  0  0  0
  -19.6033    0.8071   23.1696 C   0  0  0  0  0  0  0  0  0  0  0  0
  -19.7161   -0.7304   23.2973 C   0  0  0  0  0  0  0  0  0  0  0  0
  -20.9497    1.4137   22.7730 C   0  0  0  0  0  0  0  0  0  0  0  0
  -21.5818    2.2732   23.4628 N   0  0  0  0  0  0  0  0  0  0  0  0
  -22.7535    2.8002   22.9731 O   0  0  0  0  0  0  0  0  0  0  0  0
  -21.5195    0.9280   21.6126 N   0  0  0  0  0  0  0  0  0  0  0  0
  -17.6185    0.6748   22.3318 H   0  0  0  0  0  0  0  0  0  0  0  0
  -18.4764    2.1995   21.9690 H   0  0  0  0  0  0  0  0  0  0  0  0
  -18.9364    0.6962   21.1184 H   0  0  0  0  0  0  0  0  0  0  0  0
  -19.2757    1.2221   24.1133 H   0  0  0  0  0  0  0  0  0  0  0  0
  -20.0016   -1.1558   22.3332 H   0  0  0  0  0  0  0  0  0  0  0  0
  -20.4798   -0.9564   24.0425 H   0  0  0  0  0  0  0  0  0  0  0  0
  -18.7525   -1.1293   23.6154 H   0  0  0  0  0  0  0  0  0  0  0  0
  -22.7282    2.6649   22.0022 H   0  0  0  0  0  0  0  0  0  0  0  0
  -22.5355    0.8162   21.7225 H   0  0  0  0  0  0  0  0  0  0  0  0
  -21.0539    0.0836   21.2592 H   0  0  0  0  0  0  0  0  0  0  0  0
  1  2  1  0
  1  8  1  0
  1  9  1  0
  1 10  1  0
  2  3  1  0
  2  4  1  0
  2 11  1  0
  3 12  1  0
  3 13  1  0
  3 14  1  0
  4  5  2  0
  4  7  1  0
  5  6  1  0
  6 15  1  0
  7 16  1  0
  7 17  1  0
M  END
> <intraLJ>
7.547     

> <intraEL>
0.137     

> <intraDihe>
5.064     

> <interLJ>
0.000     

> <interEJ>
0.000     

> <gridLJ>
-5.119    

> <gridEL>
0.000     

> <totalE>
7.629     

> <LGFE>
-5.119  

> <LE>
-0.731  

> <SMILES>
CC(C)C(N)=NO

> <atom.dprop.GFE>
-0.47 -0.38 -0.36 0 -1.7 -1.6 -0.6 0 0 0 0 0 0 0 0 0 0

> <atom.prop.CLASS>
PRPC PRPC PRPC NCLA GENA MEOO GEND NCLA NCLA NCLA NCLA NCLA NCLA NCLA NCLA NCLA NCLA

$$$$
21_1
     RDKit          3D

 17 16  0  0  0  0  0  0  0  0999 V2000
  -17.8422   -0.7826   23.3393 C   0  0  0  0  0  0  0  0  0  0  0  0
  -18.8516   -1.7163   22.6401 C   0  0  0  0  0  0  0  0  0  0  0  0
  -20.0418   -0.8546   22.1567 C   0  0  0  0  0  0  0  0  0  0  0  0
  -19.3225   -2.7671   23.6462 C   0  0  0  0  0  0  0  0  0  0  0  0
  -19.1896   -4.0210   23.4909 N   0  0  0  0  0  0  0  0  0  0  0  0
  -19.5904   -4.8703   24.4951 O   0  0  0  0  0  0  0  0  0  0  0  0
  -19.9883   -2.2914   24.7586 N   0  0  0  0  0  0  0  0  0  0  0  0
  -17.5138   -0.0224   22.6297 H   0  0  0  0  0  0  0  0  0  0  0  0
  -16.9896   -1.3749   23.6730 H   0  0  0  0  0  0  0  0  0  0  0  0
  -18.3294   -0.3144   24.1979 H   0  0  0  0  0  0  0  0  0  0  0  0
  -18.3908   -2.2006   21.7897 H   0  0  0  0  0  0  0  0  0  0  0  0
  -20.4794   -0.3282   23.0072 H   0  0  0  0  0  0  0  0  0  0  0  0
  -20.7840   -1.5170   21.7094 H   0  0  0  0  0  0  0  0  0  0  0  0
  -19.6818   -0.1405   21.4155 H   0  0  0  0  0  0  0  0  0  0  0  0
  -19.6049   -4.3339   25.3159 H   0  0  0  0  0  0  0  0  0  0  0  0
  -20.7799   -2.9011   25.0001 H   0  0  0  0  0  0  0  0  0  0  0  0
  -20.2483   -1.3011   24.6783 H   0  0  0  0  0  0  0  0  0  0  0  0
  1  2  1  0
  1  8  1  0
  1  9  1  0
  1 10  1  0
  2  3  1  0
  2  4  1  0
  2 11  1  0
  3 12  1  0
  3 13  1  0
  3 14  1  0
  4  5  2  0
  4  7  1  0
  5  6  1  0
  6 15  1  0
  7 16  1  0
  7 17  1  0
M  END
> <intraLJ>
7.547     

> <intraEL>
0.137     

> <intraDihe>
5.064     

> <interLJ>
0.000     

> <interEJ>
0.000     

> <gridLJ>
-4.954    

> <gridEL>
0.000     

> <totalE>
7.794     

> <LGFE>
-4.954  

> <LE>
-0.708  

> <SMILES>
CC(C)C(N)=NO

> <atom.dprop.GFE>
-0.51 -0.29 -0.34 0 -1.6 -1.1 -1.1 0 0 0 0 0 0 0 0 0 0

> <atom.prop.CLASS>
PRPC PRPC PRPC NCLA GENA MEOO GEND NCLA NCLA NCLA NCLA NCLA NCLA NCLA NCLA NCLA NCLA

$$$$
21_1
     RDKit          3D

 17 16  0  0  0  0  0  0  0  0999 V2000
  -20.1152   -6.8690   27.8069 C   0  0  0  0  0  0  0  0  0  0  0  0
  -19.5674   -7.1117   26.3854 C   0  0  0  0  0  0  0  0  0  0  0  0
  -18.1603   -7.7404   26.5181 C   0  0  0  0  0  0  0  0  0  0  0  0
  -19.4899   -5.7698   25.6564 C   0  0  0  0  0  0  0  0  0  0  0  0
  -20.0893   -5.5081   24.5672 N   0  0  0  0  0  0  0  0  0  0  0  0
  -20.0011   -4.2425   24.0372 O   0  0  0  0  0  0  0  0  0  0  0  0
  -18.6551   -4.8207   26.2126 N   0  0  0  0  0  0  0  0  0  0  0  0
  -20.1591   -7.8215   28.3360 H   0  0  0  0  0  0  0  0  0  0  0  0
  -21.1142   -6.4389   27.7290 H   0  0  0  0  0  0  0  0  0  0  0  0
  -19.4509   -6.1759   28.3285 H   0  0  0  0  0  0  0  0  0  0  0  0
  -20.2131   -7.7891   25.8430 H   0  0  0  0  0  0  0  0  0  0  0  0
  -17.5200   -7.0792   27.1054 H   0  0  0  0  0  0  0  0  0  0  0  0
  -17.7455   -7.8644   25.5170 H   0  0  0  0  0  0  0  0  0  0  0  0
  -18.2523   -8.7100   27.0083 H   0  0  0  0  0  0  0  0  0  0  0  0
  -19.7571   -3.6520   24.7811 H   0  0  0  0  0  0  0  0  0  0  0  0
  -18.1422   -4.3109   25.4820 H   0  0  0  0  0  0  0  0  0  0  0  0
  -18.0454   -5.2021   26.9458 H   0  0  0  0  0  0  0  0  0  0  0  0
  1  2  1  0
  1  8  1  0
  1  9  1  0
  1 10  1  0
  2  3  1  0
  2  4  1  0
  2 11  1  0
  3 12  1  0
  3 13  1  0
  3 14  1  0
  4  5  2  0
  4  7  1  0
  5  6  1  0
  6 15  1  0
  7 16  1  0
  7 17  1  0
M  END
> <intraLJ>
7.547     

> <intraEL>
0.137     

> <intraDihe>
5.065     

> <interLJ>
0.000     

> <interEJ>
0.000     

> <gridLJ>
-4.577    

> <gridEL>
0.000     

> <totalE>
8.171     

> <LGFE>
-4.577  

> <LE>
-0.654  

> <SMILES>
CC(C)C(N)=NO

> <atom.dprop.GFE>
-0.35 -0.38 -0.29 0 -1.5 -1.1 -1 0 0 0 0 0 0 0 0 0 0

> <atom.prop.CLASS>
PRPC PRPC PRPC NCLA GENA MEOO GEND NCLA NCLA NCLA NCLA NCLA NCLA NCLA NCLA NCLA NCLA

$$$$
21_1
     RDKit          3D

 17 16  0  0  0  0  0  0  0  0999 V2000
   -6.9771   11.9683   -9.1036 C   0  0  0  0  0  0  0  0  0  0  0  0
   -6.0851   11.6330   -7.8905 C   0  0  0  0  0  0  0  0  0  0  0  0
   -5.2086   10.4150   -8.2659 C   0  0  0  0  0  0  0  0  0  0  0  0
   -6.9852   11.3009   -6.6998 C   0  0  0  0  0  0  0  0  0  0  0  0
   -6.9686   11.9215   -5.5913 N   0  0  0  0  0  0  0  0  0  0  0  0
   -7.8724   11.5784   -4.6137 O   0  0  0  0  0  0  0  0  0  0  0  0
   -7.8171   10.2088   -6.8497 N   0  0  0  0  0  0  0  0  0  0  0  0
   -6.3397   12.1922   -9.9597 H   0  0  0  0  0  0  0  0  0  0  0  0
   -7.5910   12.8354   -8.8585 H   0  0  0  0  0  0  0  0  0  0  0  0
   -7.6160   11.1091   -9.3212 H   0  0  0  0  0  0  0  0  0  0  0  0
   -5.4475   12.4724   -7.6478 H   0  0  0  0  0  0  0  0  0  0  0  0
   -5.8500    9.5805   -8.5562 H   0  0  0  0  0  0  0  0  0  0  0  0
   -4.6147   10.1395   -7.3936 H   0  0  0  0  0  0  0  0  0  0  0  0
   -4.5540   10.6931   -9.0923 H   0  0  0  0  0  0  0  0  0  0  0  0
   -8.6113   11.1256   -5.0727 H   0  0  0  0  0  0  0  0  0  0  0  0
   -7.8619    9.6607   -5.9813 H   0  0  0  0  0  0  0  0  0  0  0  0
   -7.5915    9.6424   -7.6762 H   0  0  0  0  0  0  0  0  0  0  0  0
  1  2  1  0
  1  8  1  0
  1  9  1  0
  1 10  1  0
  2  3  1  0
  2  4  1  0
  2 11  1  0
  3 12  1  0
  3 13  1  0
  3 14  1  0
  4  5  2  0
  4  7  1  0
  5  6  1  0
  6 15  1  0
  7 16  1  0
  7 17  1  0
M  END
> <intraLJ>
7.547     

> <intraEL>
0.137     

> <intraDihe>
5.064     

> <interLJ>
0.000     

> <interEJ>
0.000     

> <gridLJ>
-4.573    

> <gridEL>
0.000     

> <totalE>
8.175     

> <LGFE>
-4.573  

> <LE>
-0.653  

> <SMILES>
CC(C)C(N)=NO

> <atom.dprop.GFE>
-0.31 -0.39 -0.49 0 -0.81 -1.7 -0.88 0 0 0 0 0 0 0 0 0 0

> <atom.prop.CLASS>
PRPC PRPC PRPC NCLA GENA MEOO GEND NCLA NCLA NCLA NCLA NCLA NCLA NCLA NCLA NCLA NCLA

$$$$
21_1
     RDKit          3D

 17 16  0  0  0  0  0  0  0  0999 V2000
  -19.0776   -9.6635   -7.3889 C   0  0  0  0  0  0  0  0  0  0  0  0
  -17.9474   -9.0316   -8.2273 C   0  0  0  0  0  0  0  0  0  0  0  0
  -17.0116  -10.1691   -8.6996 C   0  0  0  0  0  0  0  0  0  0  0  0
  -17.1853   -8.0383   -7.3493 C   0  0  0  0  0  0  0  0  0  0  0  0
  -17.0474   -6.8035   -7.6145 N   0  0  0  0  0  0  0  0  0  0  0  0
  -16.3984   -5.9900   -6.7160 O   0  0  0  0  0  0  0  0  0  0  0  0
  -16.5648   -8.5624   -6.2325 N   0  0  0  0  0  0  0  0  0  0  0  0
  -19.6156  -10.3834   -8.0067 H   0  0  0  0  0  0  0  0  0  0  0  0
  -19.7543   -8.8739   -7.0609 H   0  0  0  0  0  0  0  0  0  0  0  0
  -18.6384  -10.1618   -6.5215 H   0  0  0  0  0  0  0  0  0  0  0  0
  -18.3568   -8.5228   -9.0896 H   0  0  0  0  0  0  0  0  0  0  0  0
  -16.6338  -10.7137   -7.8319 H   0  0  0  0  0  0  0  0  0  0  0  0
  -16.1806   -9.7230   -9.2473 H   0  0  0  0  0  0  0  0  0  0  0  0
  -17.5727  -10.8397   -9.3510 H   0  0  0  0  0  0  0  0  0  0  0  0
  -16.4453   -6.4483   -5.8504 H   0  0  0  0  0  0  0  0  0  0  0  0
  -15.6427   -8.1311   -6.0897 H   0  0  0  0  0  0  0  0  0  0  0  0
  -16.5373   -9.5890   -6.2327 H   0  0  0  0  0  0  0  0  0  0  0  0
  1  2  1  0
  1  8  1  0
  1  9  1  0
  1 10  1  0
  2  3  1  0
  2  4  1  0
  2 11  1  0
  3 12  1  0
  3 13  1  0
  3 14  1  0
  4  5  2  0
  4  7  1  0
  5  6  1  0
  6 15  1  0
  7 16  1  0
  7 17  1  0
M  END
> <intraLJ>
7.547     

> <intraEL>
0.137     

> <intraDihe>
5.065     

> <interLJ>
0.000     

> <interEJ>
0.000     

> <gridLJ>
-4.512    

> <gridEL>
0.000     

> <totalE>
8.236     

> <LGFE>
-4.512  

> <LE>
-0.645  

> <SMILES>
CC(C)C(N)=NO

> <atom.dprop.GFE>
-0.032 -0.19 -0.22 0 -1.5 -1.4 -1.2 0 0 0 0 0 0 0 0 0 0

> <atom.prop.CLASS>
PRPC PRPC PRPC NCLA GENA MEOO GEND NCLA NCLA NCLA NCLA NCLA NCLA NCLA NCLA NCLA NCLA

$$$$
21_1
     RDKit          3D

 17 16  0  0  0  0  0  0  0  0999 V2000
  -16.0738    4.6813    6.3320 C   0  0  0  0  0  0  0  0  0  0  0  0
  -16.8737    6.0001    6.3584 C   0  0  0  0  0  0  0  0  0  0  0  0
  -16.0862    7.0178    7.2167 C   0  0  0  0  0  0  0  0  0  0  0  0
  -18.2463    5.7261    6.9741 C   0  0  0  0  0  0  0  0  0  0  0  0
  -19.3528    5.9471    6.3902 N   0  0  0  0  0  0  0  0  0  0  0  0
  -20.5262    5.5976    7.0159 O   0  0  0  0  0  0  0  0  0  0  0  0
  -18.2501    5.2660    8.2761 N   0  0  0  0  0  0  0  0  0  0  0  0
  -15.0884    4.8743    5.9066 H   0  0  0  0  0  0  0  0  0  0  0  0
  -16.6105    3.9579    5.7175 H   0  0  0  0  0  0  0  0  0  0  0  0
  -15.9786    4.3048    7.3532 H   0  0  0  0  0  0  0  0  0  0  0  0
  -16.9904    6.3905    5.3564 H   0  0  0  0  0  0  0  0  0  0  0  0
  -15.9267    6.6058    8.2152 H   0  0  0  0  0  0  0  0  0  0  0  0
  -16.6729    7.9348    7.2839 H   0  0  0  0  0  0  0  0  0  0  0  0
  -15.1293    7.2198    6.7346 H   0  0  0  0  0  0  0  0  0  0  0  0
  -20.2881    4.9173    7.6808 H   0  0  0  0  0  0  0  0  0  0  0  0
  -19.0101    5.6997    8.8156 H   0  0  0  0  0  0  0  0  0  0  0  0
  -17.3331    5.3431    8.7321 H   0  0  0  0  0  0  0  0  0  0  0  0
  1  2  1  0
  1  8  1  0
  1  9  1  0
  1 10  1  0
  2  3  1  0
  2  4  1  0
  2 11  1  0
  3 12  1  0
  3 13  1  0
  3 14  1  0
  4  5  2  0
  4  7  1  0
  5  6  1  0
  6 15  1  0
  7 16  1  0
  7 17  1  0
M  END
> <intraLJ>
7.547     

> <intraEL>
0.136     

> <intraDihe>
5.065     

> <interLJ>
0.000     

> <interEJ>
0.000     

> <gridLJ>
-4.549    

> <gridEL>
0.000     

> <totalE>
8.199     

> <LGFE>
-4.549  

> <LE>
-0.650  

> <SMILES>
CC(C)C(N)=NO

> <atom.dprop.GFE>
-0.7 -0.58 -0.37 0 -1.7 -0.99 -0.18 0 0 0 0 0 0 0 0 0 0

> <atom.prop.CLASS>
PRPC PRPC PRPC NCLA GENA MEOO GEND NCLA NCLA NCLA NCLA NCLA NCLA NCLA NCLA NCLA NCLA

$$$$
21_1
     RDKit          3D

 17 16  0  0  0  0  0  0  0  0999 V2000
   24.8691    0.4748  -30.7217 C   0  0  0  0  0  0  0  0  0  0  0  0
   23.8331    1.2204  -29.8556 C   0  0  0  0  0  0  0  0  0  0  0  0
   22.9572    0.1624  -29.1440 C   0  0  0  0  0  0  0  0  0  0  0  0
   22.9777    2.1009  -30.7675 C   0  0  0  0  0  0  0  0  0  0  0  0
   22.8662    3.3611  -30.6510 N   0  0  0  0  0  0  0  0  0  0  0  0
   22.1215    4.0593  -31.5721 O   0  0  0  0  0  0  0  0  0  0  0  0
   22.2413    1.4444  -31.7337 N   0  0  0  0  0  0  0  0  0  0  0  0
   25.4727   -0.1656  -30.0776 H   0  0  0  0  0  0  0  0  0  0  0  0
   25.5040    1.2088  -31.2188 H   0  0  0  0  0  0  0  0  0  0  0  0
   24.3412   -0.1260  -31.4661 H   0  0  0  0  0  0  0  0  0  0  0  0
   24.3307    1.8312  -29.1145 H   0  0  0  0  0  0  0  0  0  0  0  0
   22.4905   -0.4848  -29.8892 H   0  0  0  0  0  0  0  0  0  0  0  0
   22.1882    0.6836  -28.5726 H   0  0  0  0  0  0  0  0  0  0  0  0
   23.5873   -0.4249  -28.4755 H   0  0  0  0  0  0  0  0  0  0  0  0
   22.0756    3.4927  -32.3711 H   0  0  0  0  0  0  0  0  0  0  0  0
   21.3080    1.8641  -31.8309 H   0  0  0  0  0  0  0  0  0  0  0  0
   22.2166    0.4267  -31.5976 H   0  0  0  0  0  0  0  0  0  0  0  0
  1  2  1  0
  1  8  1  0
  1  9  1  0
  1 10  1  0
  2  3  1  0
  2  4  1  0
  2 11  1  0
  3 12  1  0
  3 13  1  0
  3 14  1  0
  4  5  2  0
  4  7  1  0
  5  6  1  0
  6 15  1  0
  7 16  1  0
  7 17  1  0
M  END
> <intraLJ>
7.547     

> <intraEL>
0.137     

> <intraDihe>
5.065     

> <interLJ>
0.000     

> <interEJ>
0.000     

> <gridLJ>
-4.390    

> <gridEL>
0.000     

> <totalE>
8.358     

> <LGFE>
-4.390  

> <LE>
-0.627  

> <SMILES>
CC(C)C(N)=NO

> <atom.dprop.GFE>
-0.1 -0.22 -0.25 0 -1.5 -1.5 -0.87 0 0 0 0 0 0 0 0 0 0

> <atom.prop.CLASS>
PRPC PRPC PRPC NCLA GENA MEOO GEND NCLA NCLA NCLA NCLA NCLA NCLA NCLA NCLA NCLA NCLA

$$$$
21_1
     RDKit          3D

 17 16  0  0  0  0  0  0  0  0999 V2000
   -7.2121  -11.2963    2.7251 C   0  0  0  0  0  0  0  0  0  0  0  0
   -7.9853   -9.9657    2.6199 C   0  0  0  0  0  0  0  0  0  0  0  0
   -8.8919  -10.0392    1.3687 C   0  0  0  0  0  0  0  0  0  0  0  0
   -6.9766   -8.8242    2.4864 C   0  0  0  0  0  0  0  0  0  0  0  0
   -6.8920   -7.8426    3.2886 N   0  0  0  0  0  0  0  0  0  0  0  0
   -5.8995   -6.9085    3.1075 O   0  0  0  0  0  0  0  0  0  0  0  0
   -6.1583   -8.8601    1.3747 N   0  0  0  0  0  0  0  0  0  0  0  0
   -7.9276  -12.1153    2.8063 H   0  0  0  0  0  0  0  0  0  0  0  0
   -6.5787  -11.2647    3.6122 H   0  0  0  0  0  0  0  0  0  0  0  0
   -6.5956  -11.4188    1.8315 H   0  0  0  0  0  0  0  0  0  0  0  0
   -8.5982   -9.8152    3.4985 H   0  0  0  0  0  0  0  0  0  0  0  0
   -8.2798  -10.2375    0.4867 H   0  0  0  0  0  0  0  0  0  0  0  0
   -9.4007   -9.0808    1.2585 H   0  0  0  0  0  0  0  0  0  0  0  0
   -9.6219  -10.8370    1.5087 H   0  0  0  0  0  0  0  0  0  0  0  0
   -5.2050   -7.3490    2.5735 H   0  0  0  0  0  0  0  0  0  0  0  0
   -6.0304   -7.9182    0.9836 H   0  0  0  0  0  0  0  0  0  0  0  0
   -6.4579   -9.5521    0.6774 H   0  0  0  0  0  0  0  0  0  0  0  0
  1  2  1  0
  1  8  1  0
  1  9  1  0
  1 10  1  0
  2  3  1  0
  2  4  1  0
  2 11  1  0
  3 12  1  0
  3 13  1  0
  3 14  1  0
  4  5  2  0
  4  7  1  0
  5  6  1  0
  6 15  1  0
  7 16  1  0
  7 17  1  0
M  END
> <intraLJ>
7.547     

> <intraEL>
0.137     

> <intraDihe>
5.065     

> <interLJ>
0.000     

> <interEJ>
0.000     

> <gridLJ>
-4.478    

> <gridEL>
0.000     

> <totalE>
8.270     

> <LGFE>
-4.478  

> <LE>
-0.640  

> <SMILES>
CC(C)C(N)=NO

> <atom.dprop.GFE>
-0.43 -0.35 -0.22 0 -1.3 -1.2 -0.92 0 0 0 0 0 0 0 0 0 0

> <atom.prop.CLASS>
PRPC PRPC PRPC NCLA GENA MEOO GEND NCLA NCLA NCLA NCLA NCLA NCLA NCLA NCLA NCLA NCLA

$$$$
21_1
     RDKit          3D

 17 16  0  0  0  0  0  0  0  0999 V2000
  -23.6645    3.4465    4.6617 C   0  0  0  0  0  0  0  0  0  0  0  0
  -23.0749    4.8588    4.4690 C   0  0  0  0  0  0  0  0  0  0  0  0
  -22.4481    4.9248    3.0563 C   0  0  0  0  0  0  0  0  0  0  0  0
  -22.0098    5.0935    5.5409 C   0  0  0  0  0  0  0  0  0  0  0  0
  -22.0378    6.0415    6.3863 N   0  0  0  0  0  0  0  0  0  0  0  0
  -21.0592    6.1142    7.3493 O   0  0  0  0  0  0  0  0  0  0  0  0
  -20.9268    4.2370    5.5226 N   0  0  0  0  0  0  0  0  0  0  0  0
  -24.4149    3.2687    3.8906 H   0  0  0  0  0  0  0  0  0  0  0  0
  -24.1233    3.3897    5.6492 H   0  0  0  0  0  0  0  0  0  0  0  0
  -22.8587    2.7129    4.5826 H   0  0  0  0  0  0  0  0  0  0  0  0
  -23.8521    5.6065    4.5517 H   0  0  0  0  0  0  0  0  0  0  0  0
  -21.6955    4.1404    2.9549 H   0  0  0  0  0  0  0  0  0  0  0  0
  -21.9820    5.9033    2.9345 H   0  0  0  0  0  0  0  0  0  0  0  0
  -23.2359    4.7901    2.3146 H   0  0  0  0  0  0  0  0  0  0  0  0
  -20.6845    5.2113    7.4257 H   0  0  0  0  0  0  0  0  0  0  0  0
  -20.0547    4.7452    5.7171 H   0  0  0  0  0  0  0  0  0  0  0  0
  -20.8818    3.6642    4.6713 H   0  0  0  0  0  0  0  0  0  0  0  0
  1  2  1  0
  1  8  1  0
  1  9  1  0
  1 10  1  0
  2  3  1  0
  2  4  1  0
  2 11  1  0
  3 12  1  0
  3 13  1  0
  3 14  1  0
  4  5  2  0
  4  7  1  0
  5  6  1  0
  6 15  1  0
  7 16  1  0
  7 17  1  0
M  END
> <intraLJ>
7.547     

> <intraEL>
0.136     

> <intraDihe>
5.065     

> <interLJ>
0.000     

> <interEJ>
0.000     

> <gridLJ>
-4.363    

> <gridEL>
0.000     

> <totalE>
8.386     

> <LGFE>
-4.363  

> <LE>
-0.623  

> <SMILES>
CC(C)C(N)=NO

> <atom.dprop.GFE>
-0.33 -0.38 -0.53 0 -1.5 -0.99 -0.62 0 0 0 0 0 0 0 0 0 0

> <atom.prop.CLASS>
PRPC PRPC PRPC NCLA GENA MEOO GEND NCLA NCLA NCLA NCLA NCLA NCLA NCLA NCLA NCLA NCLA

$$$$
21_1
     RDKit          3D

 17 16  0  0  0  0  0  0  0  0999 V2000
   19.1240    6.8151   -8.6287 C   0  0  0  0  0  0  0  0  0  0  0  0
   19.8179    6.2198   -7.3863 C   0  0  0  0  0  0  0  0  0  0  0  0
   19.4783    7.1190   -6.1743 C   0  0  0  0  0  0  0  0  0  0  0  0
   21.3268    6.1983   -7.6333 C   0  0  0  0  0  0  0  0  0  0  0  0
   22.0437    5.1495   -7.6114 N   0  0  0  0  0  0  0  0  0  0  0  0
   23.3813    5.2415   -7.9160 O   0  0  0  0  0  0  0  0  0  0  0  0
   21.9305    7.4247   -7.8293 N   0  0  0  0  0  0  0  0  0  0  0  0
   18.0483    6.8457   -8.4518 H   0  0  0  0  0  0  0  0  0  0  0  0
   19.3429    6.1825   -9.4894 H   0  0  0  0  0  0  0  0  0  0  0  0
   19.5088    7.8232   -8.7999 H   0  0  0  0  0  0  0  0  0  0  0  0
   19.4607    5.2160   -7.1994 H   0  0  0  0  0  0  0  0  0  0  0  0
   19.7964    8.1429   -6.3801 H   0  0  0  0  0  0  0  0  0  0  0  0
   20.0101    6.7340   -5.3033 H   0  0  0  0  0  0  0  0  0  0  0  0
   18.4022    7.0856   -6.0012 H   0  0  0  0  0  0  0  0  0  0  0  0
   23.4864    6.0673   -8.4342 H   0  0  0  0  0  0  0  0  0  0  0  0
   22.8415    7.4645   -7.3548 H   0  0  0  0  0  0  0  0  0  0  0  0
   21.3175    8.2157   -7.5984 H   0  0  0  0  0  0  0  0  0  0  0  0
  1  2  1  0
  1  8  1  0
  1  9  1  0
  1 10  1  0
  2  3  1  0
  2  4  1  0
  2 11  1  0
  3 12  1  0
  3 13  1  0
  3 14  1  0
  4  5  2  0
  4  7  1  0
  5  6  1  0
  6 15  1  0
  7 16  1  0
  7 17  1  0
M  END
> <intraLJ>
7.547     

> <intraEL>
0.137     

> <intraDihe>
5.064     

> <interLJ>
0.000     

> <interEJ>
0.000     

> <gridLJ>
-4.195    

> <gridEL>
0.000     

> <totalE>
8.553     

> <LGFE>
-4.195  

> <LE>
-0.599  

> <SMILES>
CC(C)C(N)=NO

> <atom.dprop.GFE>
-0.32 -0.46 -0.47 0 -1.1 -0.62 -1.3 0 0 0 0 0 0 0 0 0 0

> <atom.prop.CLASS>
PRPC PRPC PRPC NCLA GENA MEOO GEND NCLA NCLA NCLA NCLA NCLA NCLA NCLA NCLA NCLA NCLA

$$$$
21_1
     RDKit          3D

 17 16  0  0  0  0  0  0  0  0999 V2000
    5.9792   -7.7800    3.9935 C   0  0  0  0  0  0  0  0  0  0  0  0
    6.8539   -6.5529    4.3233 C   0  0  0  0  0  0  0  0  0  0  0  0
    6.0223   -5.6010    5.2150 C   0  0  0  0  0  0  0  0  0  0  0  0
    7.2400   -5.8628    3.0145 C   0  0  0  0  0  0  0  0  0  0  0  0
    8.4353   -5.6712    2.6286 N   0  0  0  0  0  0  0  0  0  0  0  0
    8.6626   -5.0996    1.3990 O   0  0  0  0  0  0  0  0  0  0  0  0
    6.1979   -5.3715    2.2533 N   0  0  0  0  0  0  0  0  0  0  0  0
    5.6893   -8.2678    4.9248 H   0  0  0  0  0  0  0  0  0  0  0  0
    6.5583   -8.4677    3.3765 H   0  0  0  0  0  0  0  0  0  0  0  0
    5.0930   -7.4466    3.4484 H   0  0  0  0  0  0  0  0  0  0  0  0
    7.7446   -6.8570    4.8564 H   0  0  0  0  0  0  0  0  0  0  0  0
    5.1002   -5.3298    4.6972 H   0  0  0  0  0  0  0  0  0  0  0  0
    6.6161   -4.7065    5.4069 H   0  0  0  0  0  0  0  0  0  0  0  0
    5.7934   -6.1072    6.1533 H   0  0  0  0  0  0  0  0  0  0  0  0
    7.8460   -5.2450    0.8759 H   0  0  0  0  0  0  0  0  0  0  0  0
    6.4403   -4.4595    1.8456 H   0  0  0  0  0  0  0  0  0  0  0  0
    5.3015   -5.3669    2.7546 H   0  0  0  0  0  0  0  0  0  0  0  0
  1  2  1  0
  1  8  1  0
  1  9  1  0
  1 10  1  0
  2  3  1  0
  2  4  1  0
  2 11  1  0
  3 12  1  0
  3 13  1  0
  3 14  1  0
  4  5  2  0
  4  7  1  0
  5  6  1  0
  6 15  1  0
  7 16  1  0
  7 17  1  0
M  END
> <intraLJ>
7.547     

> <intraEL>
0.137     

> <intraDihe>
5.065     

> <interLJ>
0.000     

> <interEJ>
0.000     

> <gridLJ>
-4.265    

> <gridEL>
0.000     

> <totalE>
8.483     

> <LGFE>
-4.265  

> <LE>
-0.609  

> <SMILES>
CC(C)C(N)=NO

> <atom.dprop.GFE>
-0.19 -0.39 -0.26 0 -1.2 -1 -1.2 0 0 0 0 0 0 0 0 0 0

> <atom.prop.CLASS>
PRPC PRPC PRPC NCLA GENA MEOO GEND NCLA NCLA NCLA NCLA NCLA NCLA NCLA NCLA NCLA NCLA

$$$$
21_1
     RDKit          3D

 17 16  0  0  0  0  0  0  0  0999 V2000
   -2.2546   14.2491   -3.6357 C   0  0  0  0  0  0  0  0  0  0  0  0
   -1.6165   15.0059   -2.4526 C   0  0  0  0  0  0  0  0  0  0  0  0
   -0.2723   14.3181   -2.1166 C   0  0  0  0  0  0  0  0  0  0  0  0
   -2.5689   14.9367   -1.2583 C   0  0  0  0  0  0  0  0  0  0  0  0
   -3.0585   15.9508   -0.6700 N   0  0  0  0  0  0  0  0  0  0  0  0
   -3.9596   15.7666    0.3520 O   0  0  0  0  0  0  0  0  0  0  0  0
   -2.8468   13.6745   -0.7719 N   0  0  0  0  0  0  0  0  0  0  0  0
   -1.5727   14.2834   -4.4861 H   0  0  0  0  0  0  0  0  0  0  0  0
   -3.1974   14.7325   -3.8936 H   0  0  0  0  0  0  0  0  0  0  0  0
   -2.4362   13.2140   -3.3370 H   0  0  0  0  0  0  0  0  0  0  0  0
   -1.4342   16.0382   -2.7194 H   0  0  0  0  0  0  0  0  0  0  0  0
   -0.4486   13.2642   -1.8922 H   0  0  0  0  0  0  0  0  0  0  0  0
    0.1578   14.8151   -1.2462 H   0  0  0  0  0  0  0  0  0  0  0  0
    0.3968   14.4150   -2.9721 H   0  0  0  0  0  0  0  0  0  0  0  0
   -4.3316   14.8678    0.2285 H   0  0  0  0  0  0  0  0  0  0  0  0
   -2.8777   13.6766    0.2556 H   0  0  0  0  0  0  0  0  0  0  0  0
   -2.2294   12.9502   -1.1580 H   0  0  0  0  0  0  0  0  0  0  0  0
  1  2  1  0
  1  8  1  0
  1  9  1  0
  1 10  1  0
  2  3  1  0
  2  4  1  0
  2 11  1  0
  3 12  1  0
  3 13  1  0
  3 14  1  0
  4  5  2  0
  4  7  1  0
  5  6  1  0
  6 15  1  0
  7 16  1  0
  7 17  1  0
M  END
> <intraLJ>
7.547     

> <intraEL>
0.137     

> <intraDihe>
5.064     

> <interLJ>
0.000     

> <interEJ>
0.000     

> <gridLJ>
-4.172    

> <gridEL>
0.000     

> <totalE>
8.575     

> <LGFE>
-4.172  

> <LE>
-0.596  

> <SMILES>
CC(C)C(N)=NO

> <atom.dprop.GFE>
-0.52 -0.67 -0.34 0 -1.1 -0.6 -0.94 0 0 0 0 0 0 0 0 0 0

> <atom.prop.CLASS>
PRPC PRPC PRPC NCLA GENA MEOO GEND NCLA NCLA NCLA NCLA NCLA NCLA NCLA NCLA NCLA NCLA

$$$$
21_1
     RDKit          3D

 17 16  0  0  0  0  0  0  0  0999 V2000
  -28.8058   -5.8195    5.1679 C   0  0  0  0  0  0  0  0  0  0  0  0
  -28.3311   -5.0956    3.8911 C   0  0  0  0  0  0  0  0  0  0  0  0
  -28.9483   -5.8233    2.6736 C   0  0  0  0  0  0  0  0  0  0  0  0
  -26.8042   -5.1550    3.8353 C   0  0  0  0  0  0  0  0  0  0  0  0
  -26.0462   -4.1359    3.8006 N   0  0  0  0  0  0  0  0  0  0  0  0
  -24.6825   -4.3099    3.8208 O   0  0  0  0  0  0  0  0  0  0  0  0
  -26.2451   -6.4152    3.7562 N   0  0  0  0  0  0  0  0  0  0  0  0
  -29.8953   -5.7923    5.2052 H   0  0  0  0  0  0  0  0  0  0  0  0
  -28.3897   -5.3079    6.0363 H   0  0  0  0  0  0  0  0  0  0  0  0
  -28.4532   -6.8533    5.1403 H   0  0  0  0  0  0  0  0  0  0  0  0
  -28.6600   -4.0651    3.8974 H   0  0  0  0  0  0  0  0  0  0  0  0
  -28.6554   -6.8749    2.6910 H   0  0  0  0  0  0  0  0  0  0  0  0
  -28.5730   -5.3494    1.7657 H   0  0  0  0  0  0  0  0  0  0  0  0
  -30.0338   -5.7330    2.7221 H   0  0  0  0  0  0  0  0  0  0  0  0
  -24.5270   -5.1995    4.2028 H   0  0  0  0  0  0  0  0  0  0  0  0
  -25.4461   -6.4214    3.1095 H   0  0  0  0  0  0  0  0  0  0  0  0
  -26.9352   -7.1490    3.5560 H   0  0  0  0  0  0  0  0  0  0  0  0
  1  2  1  0
  1  8  1  0
  1  9  1  0
  1 10  1  0
  2  3  1  0
  2  4  1  0
  2 11  1  0
  3 12  1  0
  3 13  1  0
  3 14  1  0
  4  5  2  0
  4  7  1  0
  5  6  1  0
  6 15  1  0
  7 16  1  0
  7 17  1  0
M  END
> <intraLJ>
7.547     

> <intraEL>
0.137     

> <intraDihe>
5.064     

> <interLJ>
0.000     

> <interEJ>
0.000     

> <gridLJ>
-4.189    

> <gridEL>
0.000     

> <totalE>
8.559     

> <LGFE>
-4.189  

> <LE>
-0.598  

> <SMILES>
CC(C)C(N)=NO

> <atom.dprop.GFE>
-0.27 -0.35 -0.26 0 -1.3 -0.97 -1 0 0 0 0 0 0 0 0 0 0

> <atom.prop.CLASS>
PRPC PRPC PRPC NCLA GENA MEOO GEND NCLA NCLA NCLA NCLA NCLA NCLA NCLA NCLA NCLA NCLA

$$$$
21_1
     RDKit          3D

 17 16  0  0  0  0  0  0  0  0999 V2000
   24.2871    9.4796   -7.7736 C   0  0  0  0  0  0  0  0  0  0  0  0
   24.5868    8.0066   -8.1203 C   0  0  0  0  0  0  0  0  0  0  0  0
   24.8794    7.9243   -9.6371 C   0  0  0  0  0  0  0  0  0  0  0  0
   23.3632    7.1623   -7.7625 C   0  0  0  0  0  0  0  0  0  0  0  0
   23.3743    6.1930   -6.9412 N   0  0  0  0  0  0  0  0  0  0  0  0
   22.1969    5.5476   -6.6451 O   0  0  0  0  0  0  0  0  0  0  0  0
   22.1976    7.4591   -8.4409 N   0  0  0  0  0  0  0  0  0  0  0  0
   25.1518   10.0883   -8.0402 H   0  0  0  0  0  0  0  0  0  0  0  0
   24.0930    9.5554   -6.7033 H   0  0  0  0  0  0  0  0  0  0  0  0
   23.4079    9.8034   -8.3355 H   0  0  0  0  0  0  0  0  0  0  0  0
   25.4496    7.6575   -7.5692 H   0  0  0  0  0  0  0  0  0  0  0  0
   24.0278    8.3197  -10.1942 H   0  0  0  0  0  0  0  0  0  0  0  0
   25.0388    6.8774   -9.8981 H   0  0  0  0  0  0  0  0  0  0  0  0
   25.7759    8.5055   -9.8551 H   0  0  0  0  0  0  0  0  0  0  0  0
   21.4780    6.1748   -6.8717 H   0  0  0  0  0  0  0  0  0  0  0  0
   21.6903    6.6005   -8.6902 H   0  0  0  0  0  0  0  0  0  0  0  0
   22.3461    8.0890   -9.2383 H   0  0  0  0  0  0  0  0  0  0  0  0
  1  2  1  0
  1  8  1  0
  1  9  1  0
  1 10  1  0
  2  3  1  0
  2  4  1  0
  2 11  1  0
  3 12  1  0
  3 13  1  0
  3 14  1  0
  4  5  2  0
  4  7  1  0
  5  6  1  0
  6 15  1  0
  7 16  1  0
  7 17  1  0
M  END
> <intraLJ>
7.547     

> <intraEL>
0.137     

> <intraDihe>
5.064     

> <interLJ>
0.000     

> <interEJ>
0.000     

> <gridLJ>
-4.099    

> <gridEL>
0.000     

> <totalE>
8.649     

> <LGFE>
-4.099  

> <LE>
-0.586  

> <SMILES>
CC(C)C(N)=NO

> <atom.dprop.GFE>
-0.17 -0.38 -0.41 0 -1.2 -0.63 -1.3 0 0 0 0 0 0 0 0 0 0

> <atom.prop.CLASS>
PRPC PRPC PRPC NCLA GENA MEOO GEND NCLA NCLA NCLA NCLA NCLA NCLA NCLA NCLA NCLA NCLA

$$$$
21_1
     RDKit          3D

 17 16  0  0  0  0  0  0  0  0999 V2000
  -30.0537  -11.6431   25.2593 C   0  0  0  0  0  0  0  0  0  0  0  0
  -29.1878  -10.7164   24.3812 C   0  0  0  0  0  0  0  0  0  0  0  0
  -28.2550   -9.9100   25.3152 C   0  0  0  0  0  0  0  0  0  0  0  0
  -30.1113   -9.7781   23.6033 C   0  0  0  0  0  0  0  0  0  0  0  0
  -30.1575   -9.7033   22.3359 N   0  0  0  0  0  0  0  0  0  0  0  0
  -31.0772   -8.8705   21.7434 O   0  0  0  0  0  0  0  0  0  0  0  0
  -30.8903   -8.9241   24.3589 N   0  0  0  0  0  0  0  0  0  0  0  0
  -29.3989  -12.3050   25.8271 H   0  0  0  0  0  0  0  0  0  0  0  0
  -30.7071  -12.2292   24.6125 H   0  0  0  0  0  0  0  0  0  0  0  0
  -30.6528  -11.0301   25.9369 H   0  0  0  0  0  0  0  0  0  0  0  0
  -28.5900  -11.2990   23.6933 H   0  0  0  0  0  0  0  0  0  0  0  0
  -28.8553   -9.3572   26.0405 H   0  0  0  0  0  0  0  0  0  0  0  0
  -27.6785   -9.2140   24.7046 H   0  0  0  0  0  0  0  0  0  0  0  0
  -27.5860  -10.6016   25.8279 H   0  0  0  0  0  0  0  0  0  0  0  0
  -31.7807   -8.7231   22.4105 H   0  0  0  0  0  0  0  0  0  0  0  0
  -30.9399   -7.9935   23.9251 H   0  0  0  0  0  0  0  0  0  0  0  0
  -30.6137   -8.8970   25.3476 H   0  0  0  0  0  0  0  0  0  0  0  0
  1  2  1  0
  1  8  1  0
  1  9  1  0
  1 10  1  0
  2  3  1  0
  2  4  1  0
  2 11  1  0
  3 12  1  0
  3 13  1  0
  3 14  1  0
  4  5  2  0
  4  7  1  0
  5  6  1  0
  6 15  1  0
  7 16  1  0
  7 17  1  0
M  END
> <intraLJ>
7.547     

> <intraEL>
0.137     

> <intraDihe>
5.064     

> <interLJ>
0.000     

> <interEJ>
0.000     

> <gridLJ>
-4.078    

> <gridEL>
0.000     

> <totalE>
8.670     

> <LGFE>
-4.078  

> <LE>
-0.583  

> <SMILES>
CC(C)C(N)=NO

> <atom.dprop.GFE>
-0.42 -0.52 -0.48 0 -1.1 -0.76 -0.77 0 0 0 0 0 0 0 0 0 0

> <atom.prop.CLASS>
PRPC PRPC PRPC NCLA GENA MEOO GEND NCLA NCLA NCLA NCLA NCLA NCLA NCLA NCLA NCLA NCLA

$$$$
21_1
     RDKit          3D

 17 16  0  0  0  0  0  0  0  0999 V2000
   17.5171   -1.1891  -32.6605 C   0  0  0  0  0  0  0  0  0  0  0  0
   17.1222   -1.5141  -34.1158 C   0  0  0  0  0  0  0  0  0  0  0  0
   16.2935   -2.8202  -34.1042 C   0  0  0  0  0  0  0  0  0  0  0  0
   18.3981   -1.6945  -34.9391 C   0  0  0  0  0  0  0  0  0  0  0  0
   18.6974   -1.0024  -35.9616 N   0  0  0  0  0  0  0  0  0  0  0  0
   19.9060   -1.2081  -36.5840 O   0  0  0  0  0  0  0  0  0  0  0  0
   19.2301   -2.7281  -34.5564 N   0  0  0  0  0  0  0  0  0  0  0  0
   16.6104   -1.0734  -32.0658 H   0  0  0  0  0  0  0  0  0  0  0  0
   18.0903   -0.2616  -32.6515 H   0  0  0  0  0  0  0  0  0  0  0  0
   18.1260   -2.0071  -32.2681 H   0  0  0  0  0  0  0  0  0  0  0  0
   16.5249   -0.7141  -34.5322 H   0  0  0  0  0  0  0  0  0  0  0  0
   16.8778   -3.6181  -33.6418 H   0  0  0  0  0  0  0  0  0  0  0  0
   16.0573   -3.0843  -35.1358 H   0  0  0  0  0  0  0  0  0  0  0  0
   15.3752   -2.6499  -33.5414 H   0  0  0  0  0  0  0  0  0  0  0  0
   20.4863   -1.6340  -35.9181 H   0  0  0  0  0  0  0  0  0  0  0  0
   19.6167   -3.2104  -35.3778 H   0  0  0  0  0  0  0  0  0  0  0  0
   18.7938   -3.3654  -33.8794 H   0  0  0  0  0  0  0  0  0  0  0  0
  1  2  1  0
  1  8  1  0
  1  9  1  0
  1 10  1  0
  2  3  1  0
  2  4  1  0
  2 11  1  0
  3 12  1  0
  3 13  1  0
  3 14  1  0
  4  5  2  0
  4  7  1  0
  5  6  1  0
  6 15  1  0
  7 16  1  0
  7 17  1  0
M  END
> <intraLJ>
7.547     

> <intraEL>
0.137     

> <intraDihe>
5.064     

> <interLJ>
0.000     

> <interEJ>
0.000     

> <gridLJ>
-3.919    

> <gridEL>
0.000     

> <totalE>
8.829     

> <LGFE>
-3.919  

> <LE>
-0.560  

> <SMILES>
CC(C)C(N)=NO

> <atom.dprop.GFE>
-0.42 -0.42 -0.43 0 -1.4 -0.91 -0.37 0 0 0 0 0 0 0 0 0 0

> <atom.prop.CLASS>
PRPC PRPC PRPC NCLA GENA MEOO GEND NCLA NCLA NCLA NCLA NCLA NCLA NCLA NCLA NCLA NCLA

$$$$
21_1
     RDKit          3D

 17 16  0  0  0  0  0  0  0  0999 V2000
    7.2979   10.4045  -37.1176 C   0  0  0  0  0  0  0  0  0  0  0  0
    7.6493   11.3926  -35.9864 C   0  0  0  0  0  0  0  0  0  0  0  0
    6.3848   12.2264  -35.6723 C   0  0  0  0  0  0  0  0  0  0  0  0
    8.7850   12.2981  -36.4646 C   0  0  0  0  0  0  0  0  0  0  0  0
    9.9129   12.4009  -35.8890 N   0  0  0  0  0  0  0  0  0  0  0  0
   10.8846   13.1967  -36.4485 O   0  0  0  0  0  0  0  0  0  0  0  0
    8.5126   13.0903  -37.5624 N   0  0  0  0  0  0  0  0  0  0  0  0
    6.4785    9.7654  -36.7866 H   0  0  0  0  0  0  0  0  0  0  0  0
    8.1771    9.7990  -37.3400 H   0  0  0  0  0  0  0  0  0  0  0  0
    7.0023   10.9715  -38.0035 H   0  0  0  0  0  0  0  0  0  0  0  0
    7.9548   10.8561  -35.0983 H   0  0  0  0  0  0  0  0  0  0  0  0
    6.0476   12.7323  -36.5792 H   0  0  0  0  0  0  0  0  0  0  0  0
    6.6420   12.9637  -34.9108 H   0  0  0  0  0  0  0  0  0  0  0  0
    5.6064   11.5596  -35.3004 H   0  0  0  0  0  0  0  0  0  0  0  0
   10.6484   13.2898  -37.3957 H   0  0  0  0  0  0  0  0  0  0  0  0
    8.9201   14.0271  -37.4482 H   0  0  0  0  0  0  0  0  0  0  0  0
    7.5153   13.1085  -37.8072 H   0  0  0  0  0  0  0  0  0  0  0  0
  1  2  1  0
  1  8  1  0
  1  9  1  0
  1 10  1  0
  2  3  1  0
  2  4  1  0
  2 11  1  0
  3 12  1  0
  3 13  1  0
  3 14  1  0
  4  5  2  0
  4  7  1  0
  5  6  1  0
  6 15  1  0
  7 16  1  0
  7 17  1  0
M  END
> <intraLJ>
7.547     

> <intraEL>
0.137     

> <intraDihe>
5.064     

> <interLJ>
0.000     

> <interEJ>
0.000     

> <gridLJ>
-3.825    

> <gridEL>
0.000     

> <totalE>
8.923     

> <LGFE>
-3.825  

> <LE>
-0.546  

> <SMILES>
CC(C)C(N)=NO

> <atom.dprop.GFE>
0.02 -0.2 -0.24 0 -1.6 -1.1 -0.75 0 0 0 0 0 0 0 0 0 0

> <atom.prop.CLASS>
PRPC PRPC PRPC NCLA GENA MEOO GEND NCLA NCLA NCLA NCLA NCLA NCLA NCLA NCLA NCLA NCLA

$$$$
21_1
     RDKit          3D

 17 16  0  0  0  0  0  0  0  0999 V2000
   20.7603   -7.1841  -25.7377 C   0  0  0  0  0  0  0  0  0  0  0  0
   19.9006   -5.9248  -25.9713 C   0  0  0  0  0  0  0  0  0  0  0  0
   18.5525   -6.3748  -26.5821 C   0  0  0  0  0  0  0  0  0  0  0  0
   20.6440   -4.9979  -26.9339 C   0  0  0  0  0  0  0  0  0  0  0  0
   20.9923   -3.8072  -26.6599 N   0  0  0  0  0  0  0  0  0  0  0  0
   21.7178   -3.0889  -27.5808 O   0  0  0  0  0  0  0  0  0  0  0  0
   20.8831   -5.4971  -28.1990 N   0  0  0  0  0  0  0  0  0  0  0  0
   20.2279   -7.8551  -25.0627 H   0  0  0  0  0  0  0  0  0  0  0  0
   21.7094   -6.8832  -25.2932 H   0  0  0  0  0  0  0  0  0  0  0  0
   20.9375   -7.6745  -26.6978 H   0  0  0  0  0  0  0  0  0  0  0  0
   19.7175   -5.4142  -25.0354 H   0  0  0  0  0  0  0  0  0  0  0  0
   18.7377   -6.9310  -27.5032 H   0  0  0  0  0  0  0  0  0  0  0  0
   17.9616   -5.4843  -26.7997 H   0  0  0  0  0  0  0  0  0  0  0  0
   18.0308   -7.0035  -25.8600 H   0  0  0  0  0  0  0  0  0  0  0  0
   22.1375   -3.7492  -28.1719 H   0  0  0  0  0  0  0  0  0  0  0  0
   20.7434   -4.7700  -28.9121 H   0  0  0  0  0  0  0  0  0  0  0  0
   20.3649   -6.3621  -28.3942 H   0  0  0  0  0  0  0  0  0  0  0  0
  1  2  1  0
  1  8  1  0
  1  9  1  0
  1 10  1  0
  2  3  1  0
  2  4  1  0
  2 11  1  0
  3 12  1  0
  3 13  1  0
  3 14  1  0
  4  5  2  0
  4  7  1  0
  5  6  1  0
  6 15  1  0
  7 16  1  0
  7 17  1  0
M  END
> <intraLJ>
7.548     

> <intraEL>
0.137     

> <intraDihe>
5.064     

> <interLJ>
0.000     

> <interEJ>
0.000     

> <gridLJ>
-3.765    

> <gridEL>
0.000     

> <totalE>
8.984     

> <LGFE>
-3.765  

> <LE>
-0.538  

> <SMILES>
CC(C)C(N)=NO

> <atom.dprop.GFE>
-0.1 -0.17 -0.3 0 -1.5 -1.3 -0.44 0 0 0 0 0 0 0 0 0 0

> <atom.prop.CLASS>
PRPC PRPC PRPC NCLA GENA MEOO GEND NCLA NCLA NCLA NCLA NCLA NCLA NCLA NCLA NCLA NCLA

$$$$
21_1
     RDKit          3D

 17 16  0  0  0  0  0  0  0  0999 V2000
   25.6057    9.9875   -8.7621 C   0  0  0  0  0  0  0  0  0  0  0  0
   25.9134    8.4983   -9.0210 C   0  0  0  0  0  0  0  0  0  0  0  0
   26.3552    8.3526  -10.4963 C   0  0  0  0  0  0  0  0  0  0  0  0
   24.6459    7.6848   -8.7567 C   0  0  0  0  0  0  0  0  0  0  0  0
   24.5564    6.7523   -7.8985 N   0  0  0  0  0  0  0  0  0  0  0  0
   23.3444    6.1343   -7.6992 O   0  0  0  0  0  0  0  0  0  0  0  0
   23.5615    7.9653   -9.5644 N   0  0  0  0  0  0  0  0  0  0  0  0
   26.5030   10.5738   -8.9629 H   0  0  0  0  0  0  0  0  0  0  0  0
   25.3066   10.1078   -7.7204 H   0  0  0  0  0  0  0  0  0  0  0  0
   24.7929   10.3006   -9.4216 H   0  0  0  0  0  0  0  0  0  0  0  0
   26.7105    8.1596   -8.3729 H   0  0  0  0  0  0  0  0  0  0  0  0
   25.5706    8.7371  -11.1510 H   0  0  0  0  0  0  0  0  0  0  0  0
   26.5220    7.2942  -10.7002 H   0  0  0  0  0  0  0  0  0  0  0  0
   27.2787    8.9129  -10.6446 H   0  0  0  0  0  0  0  0  0  0  0  0
   22.6630    6.7595   -8.0256 H   0  0  0  0  0  0  0  0  0  0  0  0
   23.0687    7.1027   -9.8286 H   0  0  0  0  0  0  0  0  0  0  0  0
   23.8017    8.5580  -10.3680 H   0  0  0  0  0  0  0  0  0  0  0  0
  1  2  1  0
  1  8  1  0
  1  9  1  0
  1 10  1  0
  2  3  1  0
  2  4  1  0
  2 11  1  0
  3 12  1  0
  3 13  1  0
  3 14  1  0
  4  5  2  0
  4  7  1  0
  5  6  1  0
  6 15  1  0
  7 16  1  0
  7 17  1  0
M  END
> <intraLJ>
7.547     

> <intraEL>
0.137     

> <intraDihe>
5.064     

> <interLJ>
0.000     

> <interEJ>
0.000     

> <gridLJ>
-3.853    

> <gridEL>
0.000     

> <totalE>
8.896     

> <LGFE>
-3.853  

> <LE>
-0.550  

> <SMILES>
CC(C)C(N)=NO

> <atom.dprop.GFE>
-0.3 -0.34 -0.23 0 -1.2 -0.73 -1 0 0 0 0 0 0 0 0 0 0

> <atom.prop.CLASS>
PRPC PRPC PRPC NCLA GENA MEOO GEND NCLA NCLA NCLA NCLA NCLA NCLA NCLA NCLA NCLA NCLA

$$$$
21_1
     RDKit          3D

 17 16  0  0  0  0  0  0  0  0999 V2000
  -17.7937   -0.6940   21.8416 C   0  0  0  0  0  0  0  0  0  0  0  0
  -17.7637    0.8127   22.1710 C   0  0  0  0  0  0  0  0  0  0  0  0
  -16.5739    1.0680   23.1260 C   0  0  0  0  0  0  0  0  0  0  0  0
  -19.0836    1.1917   22.8437 C   0  0  0  0  0  0  0  0  0  0  0  0
  -19.8914    2.0660   22.3996 N   0  0  0  0  0  0  0  0  0  0  0  0
  -21.0830    2.2756   23.0528 O   0  0  0  0  0  0  0  0  0  0  0  0
  -19.3572    0.5681   24.0451 N   0  0  0  0  0  0  0  0  0  0  0  0
  -16.8485   -0.9723   21.3743 H   0  0  0  0  0  0  0  0  0  0  0  0
  -18.6198   -0.8868   21.1566 H   0  0  0  0  0  0  0  0  0  0  0  0
  -17.9387   -1.2557   22.7675 H   0  0  0  0  0  0  0  0  0  0  0  0
  -17.6300    1.3936   21.2683 H   0  0  0  0  0  0  0  0  0  0  0  0
  -16.6831    0.4475   24.0177 H   0  0  0  0  0  0  0  0  0  0  0  0
  -16.5800    2.1223   23.4055 H   0  0  0  0  0  0  0  0  0  0  0  0
  -15.6467    0.8233   22.6071 H   0  0  0  0  0  0  0  0  0  0  0  0
  -21.2563    1.4614   23.5711 H   0  0  0  0  0  0  0  0  0  0  0  0
  -19.7805    1.2265   24.7114 H   0  0  0  0  0  0  0  0  0  0  0  0
  -18.5488    0.0647   24.4297 H   0  0  0  0  0  0  0  0  0  0  0  0
  1  2  1  0
  1  8  1  0
  1  9  1  0
  1 10  1  0
  2  3  1  0
  2  4  1  0
  2 11  1  0
  3 12  1  0
  3 13  1  0
  3 14  1  0
  4  5  2  0
  4  7  1  0
  5  6  1  0
  6 15  1  0
  7 16  1  0
  7 17  1  0
M  END
> <intraLJ>
7.547     

> <intraEL>
0.137     

> <intraDihe>
5.064     

> <interLJ>
0.000     

> <interEJ>
0.000     

> <gridLJ>
-3.813    

> <gridEL>
0.000     

> <totalE>
8.935     

> <LGFE>
-3.813  

> <LE>
-0.545  

> <SMILES>
CC(C)C(N)=NO

> <atom.dprop.GFE>
-0.46 -0.54 -0.5 0 -0.47 -1.4 -0.42 0 0 0 0 0 0 0 0 0 0

> <atom.prop.CLASS>
PRPC PRPC PRPC NCLA GENA MEOO GEND NCLA NCLA NCLA NCLA NCLA NCLA NCLA NCLA NCLA NCLA

$$$$
21_1
     RDKit          3D

 17 16  0  0  0  0  0  0  0  0999 V2000
  -17.0725   10.0053  -15.5215 C   0  0  0  0  0  0  0  0  0  0  0  0
  -16.9308    8.4835  -15.3126 C   0  0  0  0  0  0  0  0  0  0  0  0
  -16.7961    8.2217  -13.7940 C   0  0  0  0  0  0  0  0  0  0  0  0
  -15.6823    8.0033  -16.0535 C   0  0  0  0  0  0  0  0  0  0  0  0
  -15.6839    7.1199  -16.9666 N   0  0  0  0  0  0  0  0  0  0  0  0
  -14.5083    6.8158  -17.6116 O   0  0  0  0  0  0  0  0  0  0  0  0
  -14.4806    8.5405  -15.6359 N   0  0  0  0  0  0  0  0  0  0  0  0
  -17.9540   10.3552  -14.9832 H   0  0  0  0  0  0  0  0  0  0  0  0
  -17.1832   10.2040  -16.5880 H   0  0  0  0  0  0  0  0  0  0  0  0
  -16.1753   10.4996  -15.1417 H   0  0  0  0  0  0  0  0  0  0  0  0
  -17.8040    7.9681  -15.6892 H   0  0  0  0  0  0  0  0  0  0  0  0
  -15.9423    8.7785  -13.4028 H   0  0  0  0  0  0  0  0  0  0  0  0
  -16.6412    7.1525  -13.6438 H   0  0  0  0  0  0  0  0  0  0  0  0
  -17.7136    8.5406  -13.2986 H   0  0  0  0  0  0  0  0  0  0  0  0
  -13.9186    7.5885  -17.4818 H   0  0  0  0  0  0  0  0  0  0  0  0
  -13.7433    7.8242  -15.6252 H   0  0  0  0  0  0  0  0  0  0  0  0
  -14.5573    9.0575  -14.7518 H   0  0  0  0  0  0  0  0  0  0  0  0
  1  2  1  0
  1  8  1  0
  1  9  1  0
  1 10  1  0
  2  3  1  0
  2  4  1  0
  2 11  1  0
  3 12  1  0
  3 13  1  0
  3 14  1  0
  4  5  2  0
  4  7  1  0
  5  6  1  0
  6 15  1  0
  7 16  1  0
  7 17  1  0
M  END
> <intraLJ>
7.547     

> <intraEL>
0.137     

> <intraDihe>
5.065     

> <interLJ>
0.000     

> <interEJ>
0.000     

> <gridLJ>
-3.757    

> <gridEL>
0.000     

> <totalE>
8.991     

> <LGFE>
-3.757  

> <LE>
-0.537  

> <SMILES>
CC(C)C(N)=NO

> <atom.dprop.GFE>
-0.34 -0.46 -0.45 0 -1 -0.83 -0.65 0 0 0 0 0 0 0 0 0 0

> <atom.prop.CLASS>
PRPC PRPC PRPC NCLA GENA MEOO GEND NCLA NCLA NCLA NCLA NCLA NCLA NCLA NCLA NCLA NCLA

$$$$
21_1
     RDKit          3D

 17 16  0  0  0  0  0  0  0  0999 V2000
  -22.0822    4.2659    4.2055 C   0  0  0  0  0  0  0  0  0  0  0  0
  -22.2117    4.6628    5.6905 C   0  0  0  0  0  0  0  0  0  0  0  0
  -20.9204    4.2179    6.4168 C   0  0  0  0  0  0  0  0  0  0  0  0
  -23.4315    3.9541    6.2806 C   0  0  0  0  0  0  0  0  0  0  0  0
  -24.4203    4.5486    6.8126 N   0  0  0  0  0  0  0  0  0  0  0  0
  -25.4947    3.8101    7.2494 O   0  0  0  0  0  0  0  0  0  0  0  0
  -23.3970    2.5736    6.2749 N   0  0  0  0  0  0  0  0  0  0  0  0
  -21.2051    4.7578    3.7835 H   0  0  0  0  0  0  0  0  0  0  0  0
  -22.9804    4.5868    3.6772 H   0  0  0  0  0  0  0  0  0  0  0  0
  -21.9776    3.1805    4.1372 H   0  0  0  0  0  0  0  0  0  0  0  0
  -22.3258    5.7342    5.7860 H   0  0  0  0  0  0  0  0  0  0  0  0
  -20.7786    3.1437    6.2823 H   0  0  0  0  0  0  0  0  0  0  0  0
  -21.0286    4.4471    7.4777 H   0  0  0  0  0  0  0  0  0  0  0  0
  -20.0748    4.7654    5.9996 H   0  0  0  0  0  0  0  0  0  0  0  0
  -25.4568    2.9599    6.7623 H   0  0  0  0  0  0  0  0  0  0  0  0
  -23.7841    2.1941    7.1482 H   0  0  0  0  0  0  0  0  0  0  0  0
  -22.4705    2.1958    6.0434 H   0  0  0  0  0  0  0  0  0  0  0  0
  1  2  1  0
  1  8  1  0
  1  9  1  0
  1 10  1  0
  2  3  1  0
  2  4  1  0
  2 11  1  0
  3 12  1  0
  3 13  1  0
  3 14  1  0
  4  5  2  0
  4  7  1  0
  5  6  1  0
  6 15  1  0
  7 16  1  0
  7 17  1  0
M  END
> <intraLJ>
7.547     

> <intraEL>
0.137     

> <intraDihe>
5.065     

> <interLJ>
0.000     

> <interEJ>
0.000     

> <gridLJ>
-3.715    

> <gridEL>
0.000     

> <totalE>
9.033     

> <LGFE>
-3.715  

> <LE>
-0.531  

> <SMILES>
CC(C)C(N)=NO

> <atom.dprop.GFE>
-0.44 -0.36 -0.56 0 -0.87 -0.5 -0.99 0 0 0 0 0 0 0 0 0 0

> <atom.prop.CLASS>
PRPC PRPC PRPC NCLA GENA MEOO GEND NCLA NCLA NCLA NCLA NCLA NCLA NCLA NCLA NCLA NCLA

$$$$
21_1
     RDKit          3D

 17 16  0  0  0  0  0  0  0  0999 V2000
  -18.5840    7.5487   -3.6317 C   0  0  0  0  0  0  0  0  0  0  0  0
  -19.0787    6.2882   -2.8927 C   0  0  0  0  0  0  0  0  0  0  0  0
  -18.0682    5.1491   -3.1649 C   0  0  0  0  0  0  0  0  0  0  0  0
  -20.4621    5.9191   -3.4295 C   0  0  0  0  0  0  0  0  0  0  0  0
  -21.5122    5.8436   -2.7183 N   0  0  0  0  0  0  0  0  0  0  0  0
  -22.7164    5.5688   -3.3223 O   0  0  0  0  0  0  0  0  0  0  0  0
  -20.5292    5.5915   -4.7693 N   0  0  0  0  0  0  0  0  0  0  0  0
  -17.5912    7.8080   -3.2623 H   0  0  0  0  0  0  0  0  0  0  0  0
  -19.2798    8.3652   -3.4367 H   0  0  0  0  0  0  0  0  0  0  0  0
  -18.5469    7.3388   -4.7033 H   0  0  0  0  0  0  0  0  0  0  0  0
  -19.1334    6.4723   -1.8282 H   0  0  0  0  0  0  0  0  0  0  0  0
  -17.9766    4.9932   -4.2416 H   0  0  0  0  0  0  0  0  0  0  0  0
  -18.4408    4.2408   -2.6896 H   0  0  0  0  0  0  0  0  0  0  0  0
  -17.1028    5.4253   -2.7400 H   0  0  0  0  0  0  0  0  0  0  0  0
  -22.6095    5.8120   -4.2662 H   0  0  0  0  0  0  0  0  0  0  0  0
  -21.1673    4.8000   -4.9213 H   0  0  0  0  0  0  0  0  0  0  0  0
  -19.6051    5.4558   -5.1965 H   0  0  0  0  0  0  0  0  0  0  0  0
  1  2  1  0
  1  8  1  0
  1  9  1  0
  1 10  1  0
  2  3  1  0
  2  4  1  0
  2 11  1  0
  3 12  1  0
  3 13  1  0
  3 14  1  0
  4  5  2  0
  4  7  1  0
  5  6  1  0
  6 15  1  0
  7 16  1  0
  7 17  1  0
M  END
> <intraLJ>
7.547     

> <intraEL>
0.137     

> <intraDihe>
5.064     

> <interLJ>
0.000     

> <interEJ>
0.000     

> <gridLJ>
-3.671    

> <gridEL>
0.000     

> <totalE>
9.078     

> <LGFE>
-3.671  

> <LE>
-0.524  

> <SMILES>
CC(C)C(N)=NO

> <atom.dprop.GFE>
-0.34 -0.42 -0.43 0 -0.64 -1 -0.81 0 0 0 0 0 0 0 0 0 0

> <atom.prop.CLASS>
PRPC PRPC PRPC NCLA GENA MEOO GEND NCLA NCLA NCLA NCLA NCLA NCLA NCLA NCLA NCLA NCLA

$$$$
21_1
     RDKit          3D

 17 16  0  0  0  0  0  0  0  0999 V2000
   -2.0258    3.1662   11.7350 C   0  0  0  0  0  0  0  0  0  0  0  0
   -2.6071    3.5043   10.3466 C   0  0  0  0  0  0  0  0  0  0  0  0
   -3.9893    2.8198   10.2294 C   0  0  0  0  0  0  0  0  0  0  0  0
   -1.6527    2.9747    9.2757 C   0  0  0  0  0  0  0  0  0  0  0  0
   -1.1019    3.6940    8.3849 N   0  0  0  0  0  0  0  0  0  0  0  0
   -0.2064    3.1194    7.5141 O   0  0  0  0  0  0  0  0  0  0  0  0
   -1.4445    1.6096    9.2651 N   0  0  0  0  0  0  0  0  0  0  0  0
   -2.7101    3.5294   12.5025 H   0  0  0  0  0  0  0  0  0  0  0  0
   -1.0564    3.6547   11.8376 H   0  0  0  0  0  0  0  0  0  0  0  0
   -1.9073    2.0830   11.8147 H   0  0  0  0  0  0  0  0  0  0  0  0
   -2.7262    4.5738   10.2379 H   0  0  0  0  0  0  0  0  0  0  0  0
   -3.8778    1.7449   10.3852 H   0  0  0  0  0  0  0  0  0  0  0  0
   -4.3815    3.0103    9.2296 H   0  0  0  0  0  0  0  0  0  0  0  0
   -4.6569    3.2428   10.9806 H   0  0  0  0  0  0  0  0  0  0  0  0
    0.1127    2.3018    7.9515 H   0  0  0  0  0  0  0  0  0  0  0  0
   -1.4070    1.2524    8.3019 H   0  0  0  0  0  0  0  0  0  0  0  0
   -2.1048    1.0978    9.8625 H   0  0  0  0  0  0  0  0  0  0  0  0
  1  2  1  0
  1  8  1  0
  1  9  1  0
  1 10  1  0
  2  3  1  0
  2  4  1  0
  2 11  1  0
  3 12  1  0
  3 13  1  0
  3 14  1  0
  4  5  2  0
  4  7  1  0
  5  6  1  0
  6 15  1  0
  7 16  1  0
  7 17  1  0
M  END
> <intraLJ>
7.547     

> <intraEL>
0.136     

> <intraDihe>
5.065     

> <interLJ>
0.000     

> <interEJ>
0.000     

> <gridLJ>
-3.637    

> <gridEL>
0.000     

> <totalE>
9.111     

> <LGFE>
-3.637  

> <LE>
-0.520  

> <SMILES>
CC(C)C(N)=NO

> <atom.dprop.GFE>
-0.24 -0.46 -0.4 0 -1.1 -0.43 -1 0 0 0 0 0 0 0 0 0 0

> <atom.prop.CLASS>
PRPC PRPC PRPC NCLA GENA MEOO GEND NCLA NCLA NCLA NCLA NCLA NCLA NCLA NCLA NCLA NCLA

$$$$
21_1
     RDKit          3D

 17 16  0  0  0  0  0  0  0  0999 V2000
  -10.5541   12.5806    2.9250 C   0  0  0  0  0  0  0  0  0  0  0  0
  -10.6829   11.2662    3.7221 C   0  0  0  0  0  0  0  0  0  0  0  0
  -10.2898   11.5583    5.1894 C   0  0  0  0  0  0  0  0  0  0  0  0
   -9.7404   10.2295    3.1094 C   0  0  0  0  0  0  0  0  0  0  0  0
  -10.1119    9.1078    2.6425 N   0  0  0  0  0  0  0  0  0  0  0  0
   -9.1832    8.2829    2.0530 O   0  0  0  0  0  0  0  0  0  0  0  0
   -8.3945   10.5372    3.1367 N   0  0  0  0  0  0  0  0  0  0  0  0
  -11.2141   13.3279    3.3669 H   0  0  0  0  0  0  0  0  0  0  0  0
  -10.8425   12.3930    1.8904 H   0  0  0  0  0  0  0  0  0  0  0  0
   -9.5163   12.9194    2.9669 H   0  0  0  0  0  0  0  0  0  0  0  0
  -11.7014   10.9034    3.6891 H   0  0  0  0  0  0  0  0  0  0  0  0
   -9.2785   11.9685    5.2207 H   0  0  0  0  0  0  0  0  0  0  0  0
  -10.3267   10.6212    5.7462 H   0  0  0  0  0  0  0  0  0  0  0  0
  -10.9997   12.2717    5.6090 H   0  0  0  0  0  0  0  0  0  0  0  0
   -8.4345    8.8592    1.7906 H   0  0  0  0  0  0  0  0  0  0  0  0
   -7.8330    9.7049    3.3578 H   0  0  0  0  0  0  0  0  0  0  0  0
   -8.1787   11.3433    3.7354 H   0  0  0  0  0  0  0  0  0  0  0  0
  1  2  1  0
  1  8  1  0
  1  9  1  0
  1 10  1  0
  2  3  1  0
  2  4  1  0
  2 11  1  0
  3 12  1  0
  3 13  1  0
  3 14  1  0
  4  5  2  0
  4  7  1  0
  5  6  1  0
  6 15  1  0
  7 16  1  0
  7 17  1  0
M  END
> <intraLJ>
7.547     

> <intraEL>
0.137     

> <intraDihe>
5.064     

> <interLJ>
0.000     

> <interEJ>
0.000     

> <gridLJ>
-3.605    

> <gridEL>
0.000     

> <totalE>
9.143     

> <LGFE>
-3.605  

> <LE>
-0.515  

> <SMILES>
CC(C)C(N)=NO

> <atom.dprop.GFE>
-0.26 -0.0027 0.043 0 -1.1 -1 -1.3 0 0 0 0 0 0 0 0 0 0

> <atom.prop.CLASS>
PRPC PRPC PRPC NCLA GENA MEOO GEND NCLA NCLA NCLA NCLA NCLA NCLA NCLA NCLA NCLA NCLA

$$$$
21_1
     RDKit          3D

 17 16  0  0  0  0  0  0  0  0999 V2000
   13.3946    5.8869  -43.3794 C   0  0  0  0  0  0  0  0  0  0  0  0
   11.9792    5.6637  -42.8081 C   0  0  0  0  0  0  0  0  0  0  0  0
   11.0937    5.0906  -43.9397 C   0  0  0  0  0  0  0  0  0  0  0  0
   11.4307    7.0065  -42.3243 C   0  0  0  0  0  0  0  0  0  0  0  0
   11.0554    7.2425  -41.1337 N   0  0  0  0  0  0  0  0  0  0  0  0
   10.6424    8.5098  -40.7963 O   0  0  0  0  0  0  0  0  0  0  0  0
   11.2884    7.9890  -43.2843 N   0  0  0  0  0  0  0  0  0  0  0  0
   13.7848    4.9342  -43.7389 H   0  0  0  0  0  0  0  0  0  0  0  0
   14.0346    6.2776  -42.5878 H   0  0  0  0  0  0  0  0  0  0  0  0
   13.3356    6.6062  -44.1997 H   0  0  0  0  0  0  0  0  0  0  0  0
   12.0106    4.9608  -41.9866 H   0  0  0  0  0  0  0  0  0  0  0  0
   11.0981    5.7772  -44.7886 H   0  0  0  0  0  0  0  0  0  0  0  0
   10.0782    4.9815  -43.5570 H   0  0  0  0  0  0  0  0  0  0  0  0
   11.4881    4.1189  -44.2381 H   0  0  0  0  0  0  0  0  0  0  0  0
   11.0322    9.1107  -41.4661 H   0  0  0  0  0  0  0  0  0  0  0  0
   10.4186    8.5178  -43.1410 H   0  0  0  0  0  0  0  0  0  0  0  0
   11.3944    7.6334  -44.2419 H   0  0  0  0  0  0  0  0  0  0  0  0
  1  2  1  0
  1  8  1  0
  1  9  1  0
  1 10  1  0
  2  3  1  0
  2  4  1  0
  2 11  1  0
  3 12  1  0
  3 13  1  0
  3 14  1  0
  4  5  2  0
  4  7  1  0
  5  6  1  0
  6 15  1  0
  7 16  1  0
  7 17  1  0
M  END
> <intraLJ>
7.547     

> <intraEL>
0.137     

> <intraDihe>
5.065     

> <interLJ>
0.000     

> <interEJ>
0.000     

> <gridLJ>
-3.531    

> <gridEL>
0.000     

> <totalE>
9.217     

> <LGFE>
-3.531  

> <LE>
-0.504  

> <SMILES>
CC(C)C(N)=NO

> <atom.dprop.GFE>
-0.37 -0.37 -0.28 0 -0.93 -0.87 -0.73 0 0 0 0 0 0 0 0 0 0

> <atom.prop.CLASS>
PRPC PRPC PRPC NCLA GENA MEOO GEND NCLA NCLA NCLA NCLA NCLA NCLA NCLA NCLA NCLA NCLA

$$$$
21_1
     RDKit          3D

 17 16  0  0  0  0  0  0  0  0999 V2000
  -40.3575    5.4909   18.3687 C   0  0  0  0  0  0  0  0  0  0  0  0
  -40.8809    6.0523   19.7068 C   0  0  0  0  0  0  0  0  0  0  0  0
  -41.9493    7.1246   19.3882 C   0  0  0  0  0  0  0  0  0  0  0  0
  -39.7083    6.6716   20.4683 C   0  0  0  0  0  0  0  0  0  0  0  0
  -39.3429    6.3211   21.6335 N   0  0  0  0  0  0  0  0  0  0  0  0
  -38.2299    6.9024   22.1937 O   0  0  0  0  0  0  0  0  0  0  0  0
  -39.0628    7.7216   19.8455 N   0  0  0  0  0  0  0  0  0  0  0  0
  -41.1928    5.0605   17.8152 H   0  0  0  0  0  0  0  0  0  0  0  0
  -39.6129    4.7223   18.5781 H   0  0  0  0  0  0  0  0  0  0  0  0
  -39.9031    6.3039   17.7975 H   0  0  0  0  0  0  0  0  0  0  0  0
  -41.3287    5.2642   20.2970 H   0  0  0  0  0  0  0  0  0  0  0  0
  -41.5114    7.8976   18.7535 H   0  0  0  0  0  0  0  0  0  0  0  0
  -42.2841    7.5636   20.3288 H   0  0  0  0  0  0  0  0  0  0  0  0
  -42.7866    6.6472   18.8784 H   0  0  0  0  0  0  0  0  0  0  0  0
  -37.7028    7.2571   21.4467 H   0  0  0  0  0  0  0  0  0  0  0  0
  -38.8187    8.4550   20.5232 H   0  0  0  0  0  0  0  0  0  0  0  0
  -39.5717    8.0777   19.0275 H   0  0  0  0  0  0  0  0  0  0  0  0
  1  2  1  0
  1  8  1  0
  1  9  1  0
  1 10  1  0
  2  3  1  0
  2  4  1  0
  2 11  1  0
  3 12  1  0
  3 13  1  0
  3 14  1  0
  4  5  2  0
  4  7  1  0
  5  6  1  0
  6 15  1  0
  7 16  1  0
  7 17  1  0
M  END
> <intraLJ>
7.548     

> <intraEL>
0.136     

> <intraDihe>
5.067     

> <interLJ>
0.000     

> <interEJ>
0.000     

> <gridLJ>
-3.558    

> <gridEL>
0.000     

> <totalE>
9.192     

> <LGFE>
-3.558  

> <LE>
-0.508  

> <SMILES>
CC(C)C(N)=NO

> <atom.dprop.GFE>
-0.49 -0.56 -0.42 0 -0.7 -0.54 -0.84 0 0 0 0 0 0 0 0 0 0

> <atom.prop.CLASS>
PRPC PRPC PRPC NCLA GENA MEOO GEND NCLA NCLA NCLA NCLA NCLA NCLA NCLA NCLA NCLA NCLA

$$$$
21_1
     RDKit          3D

 17 16  0  0  0  0  0  0  0  0999 V2000
   11.9272   17.7563  -27.8588 C   0  0  0  0  0  0  0  0  0  0  0  0
   13.1262   18.0425  -28.7862 C   0  0  0  0  0  0  0  0  0  0  0  0
   12.5737   18.5840  -30.1257 C   0  0  0  0  0  0  0  0  0  0  0  0
   13.8930   16.7384  -29.0091 C   0  0  0  0  0  0  0  0  0  0  0  0
   15.1197   16.5686  -28.7252 N   0  0  0  0  0  0  0  0  0  0  0  0
   15.6877   15.3297  -28.9062 O   0  0  0  0  0  0  0  0  0  0  0  0
   13.1933   15.7157  -29.6185 N   0  0  0  0  0  0  0  0  0  0  0  0
   11.3686   18.6807  -27.7080 H   0  0  0  0  0  0  0  0  0  0  0  0
   12.3028   17.3871  -26.9040 H   0  0  0  0  0  0  0  0  0  0  0  0
   11.2910   17.0009  -28.3260 H   0  0  0  0  0  0  0  0  0  0  0  0
   13.7784   18.7823  -28.3421 H   0  0  0  0  0  0  0  0  0  0  0  0
   11.8788   17.8583  -30.5530 H   0  0  0  0  0  0  0  0  0  0  0  0
   13.4132   18.7371  -30.8049 H   0  0  0  0  0  0  0  0  0  0  0  0
   12.0644   19.5301  -29.9402 H   0  0  0  0  0  0  0  0  0  0  0  0
   14.9461   14.6881  -28.9107 H   0  0  0  0  0  0  0  0  0  0  0  0
   13.7872   15.2167  -30.2930 H   0  0  0  0  0  0  0  0  0  0  0  0
   12.2974   16.0229  -30.0158 H   0  0  0  0  0  0  0  0  0  0  0  0
  1  2  1  0
  1  8  1  0
  1  9  1  0
  1 10  1  0
  2  3  1  0
  2  4  1  0
  2 11  1  0
  3 12  1  0
  3 13  1  0
  3 14  1  0
  4  5  2  0
  4  7  1  0
  5  6  1  0
  6 15  1  0
  7 16  1  0
  7 17  1  0
M  END
> <intraLJ>
7.547     

> <intraEL>
0.137     

> <intraDihe>
5.065     

> <interLJ>
0.000     

> <interEJ>
0.000     

> <gridLJ>
-3.507    

> <gridEL>
0.000     

> <totalE>
9.241     

> <LGFE>
-3.507  

> <LE>
-0.501  

> <SMILES>
CC(C)C(N)=NO

> <atom.dprop.GFE>
0.15 -0.089 -0.023 0 -1.2 -0.67 -1.7 0 0 0 0 0 0 0 0 0 0

> <atom.prop.CLASS>
PRPC PRPC PRPC NCLA GENA MEOO GEND NCLA NCLA NCLA NCLA NCLA NCLA NCLA NCLA NCLA NCLA

$$$$
21_1
     RDKit          3D

 17 16  0  0  0  0  0  0  0  0999 V2000
   -5.3327   -7.1914    1.7289 C   0  0  0  0  0  0  0  0  0  0  0  0
   -5.5112   -7.9095    0.3753 C   0  0  0  0  0  0  0  0  0  0  0  0
   -5.3619   -9.4297    0.6192 C   0  0  0  0  0  0  0  0  0  0  0  0
   -4.4328   -7.4112   -0.5875 C   0  0  0  0  0  0  0  0  0  0  0  0
   -4.6686   -6.8578   -1.7065 N   0  0  0  0  0  0  0  0  0  0  0  0
   -3.6190   -6.3872   -2.4597 O   0  0  0  0  0  0  0  0  0  0  0  0
   -3.1247   -7.6495   -0.2145 N   0  0  0  0  0  0  0  0  0  0  0  0
   -6.0911   -7.5539    2.4238 H   0  0  0  0  0  0  0  0  0  0  0  0
   -5.4501   -6.1184    1.5747 H   0  0  0  0  0  0  0  0  0  0  0  0
   -4.3328   -7.4053    2.1137 H   0  0  0  0  0  0  0  0  0  0  0  0
   -6.4921   -7.7064   -0.0329 H   0  0  0  0  0  0  0  0  0  0  0  0
   -4.3904   -9.6318    1.0744 H   0  0  0  0  0  0  0  0  0  0  0  0
   -5.4332   -9.9389   -0.3427 H   0  0  0  0  0  0  0  0  0  0  0  0
   -6.1642   -9.7613    1.2790 H   0  0  0  0  0  0  0  0  0  0  0  0
   -2.8728   -6.2585   -1.8366 H   0  0  0  0  0  0  0  0  0  0  0  0
   -2.5568   -7.9247   -1.0260 H   0  0  0  0  0  0  0  0  0  0  0  0
   -3.0445   -8.2996    0.5765 H   0  0  0  0  0  0  0  0  0  0  0  0
  1  2  1  0
  1  8  1  0
  1  9  1  0
  1 10  1  0
  2  3  1  0
  2  4  1  0
  2 11  1  0
  3 12  1  0
  3 13  1  0
  3 14  1  0
  4  5  2  0
  4  7  1  0
  5  6  1  0
  6 15  1  0
  7 16  1  0
  7 17  1  0
M  END
> <intraLJ>
7.547     

> <intraEL>
0.137     

> <intraDihe>
5.065     

> <interLJ>
0.000     

> <interEJ>
0.000     

> <gridLJ>
-3.576    

> <gridEL>
0.000     

> <totalE>
9.173     

> <LGFE>
-3.576  

> <LE>
-0.511  

> <SMILES>
CC(C)C(N)=NO

> <atom.dprop.GFE>
-0.17 -0.072 -0.092 0 -1.2 -1.3 -0.69 0 0 0 0 0 0 0 0 0 0

> <atom.prop.CLASS>
PRPC PRPC PRPC NCLA GENA MEOO GEND NCLA NCLA NCLA NCLA NCLA NCLA NCLA NCLA NCLA NCLA

$$$$
21_1
     RDKit          3D

 17 16  0  0  0  0  0  0  0  0999 V2000
   17.4424   15.2967   -5.6114 C   0  0  0  0  0  0  0  0  0  0  0  0
   18.2474   15.5768   -4.3257 C   0  0  0  0  0  0  0  0  0  0  0  0
   18.0331   17.0602   -3.9431 C   0  0  0  0  0  0  0  0  0  0  0  0
   19.7254   15.3021   -4.6057 C   0  0  0  0  0  0  0  0  0  0  0  0
   20.4334   14.4615   -3.9682 N   0  0  0  0  0  0  0  0  0  0  0  0
   21.7362   14.2491   -4.3530 O   0  0  0  0  0  0  0  0  0  0  0  0
   20.3164   16.0804   -5.5814 N   0  0  0  0  0  0  0  0  0  0  0  0
   16.3889   15.5048   -5.4210 H   0  0  0  0  0  0  0  0  0  0  0  0
   17.5724   14.2494   -5.8854 H   0  0  0  0  0  0  0  0  0  0  0  0
   17.8174   15.9402   -6.4108 H   0  0  0  0  0  0  0  0  0  0  0  0
   17.9014   14.9448   -3.5189 H   0  0  0  0  0  0  0  0  0  0  0  0
   18.3384   17.6985   -4.7745 H   0  0  0  0  0  0  0  0  0  0  0  0
   18.6428   17.2784   -3.0654 H   0  0  0  0  0  0  0  0  0  0  0  0
   16.9784   17.2165   -3.7148 H   0  0  0  0  0  0  0  0  0  0  0  0
   21.7971   14.5477   -5.2850 H   0  0  0  0  0  0  0  0  0  0  0  0
   21.2690   16.3516   -5.3063 H   0  0  0  0  0  0  0  0  0  0  0  0
   19.7342   16.8766   -5.8676 H   0  0  0  0  0  0  0  0  0  0  0  0
  1  2  1  0
  1  8  1  0
  1  9  1  0
  1 10  1  0
  2  3  1  0
  2  4  1  0
  2 11  1  0
  3 12  1  0
  3 13  1  0
  3 14  1  0
  4  5  2  0
  4  7  1  0
  5  6  1  0
  6 15  1  0
  7 16  1  0
  7 17  1  0
M  END
> <intraLJ>
7.547     

> <intraEL>
0.137     

> <intraDihe>
5.065     

> <interLJ>
0.000     

> <interEJ>
0.000     

> <gridLJ>
-3.453    

> <gridEL>
0.000     

> <totalE>
9.294     

> <LGFE>
-3.453  

> <LE>
-0.493  

> <SMILES>
CC(C)C(N)=NO

> <atom.dprop.GFE>
-0.46 -0.58 -0.47 0 -1.1 -0.62 -0.28 0 0 0 0 0 0 0 0 0 0

> <atom.prop.CLASS>
PRPC PRPC PRPC NCLA GENA MEOO GEND NCLA NCLA NCLA NCLA NCLA NCLA NCLA NCLA NCLA NCLA

$$$$
21_1
     RDKit          3D

 17 16  0  0  0  0  0  0  0  0999 V2000
   10.0060   17.3042  -36.3543 C   0  0  0  0  0  0  0  0  0  0  0  0
   10.8487   16.0534  -36.0305 C   0  0  0  0  0  0  0  0  0  0  0  0
   12.2312   16.2232  -36.7033 C   0  0  0  0  0  0  0  0  0  0  0  0
   10.1289   14.8232  -36.5843 C   0  0  0  0  0  0  0  0  0  0  0  0
    9.7633   13.8285  -35.8835 N   0  0  0  0  0  0  0  0  0  0  0  0
    9.0617   12.8068  -36.4787 O   0  0  0  0  0  0  0  0  0  0  0  0
    9.9333   14.7946  -37.9510 N   0  0  0  0  0  0  0  0  0  0  0  0
   10.5222   18.1863  -35.9737 H   0  0  0  0  0  0  0  0  0  0  0  0
    9.0323   17.2051  -35.8736 H   0  0  0  0  0  0  0  0  0  0  0  0
    9.8811   17.3760  -37.4373 H   0  0  0  0  0  0  0  0  0  0  0  0
   10.9800   15.9535  -34.9615 H   0  0  0  0  0  0  0  0  0  0  0  0
   12.0980   16.3708  -37.7768 H   0  0  0  0  0  0  0  0  0  0  0  0
   12.8124   15.3180  -36.5233 H   0  0  0  0  0  0  0  0  0  0  0  0
   12.7339   17.0849  -36.2633 H   0  0  0  0  0  0  0  0  0  0  0  0
    8.6657   13.1859  -37.2918 H   0  0  0  0  0  0  0  0  0  0  0  0
   10.0898   13.8494  -38.3236 H   0  0  0  0  0  0  0  0  0  0  0  0
   10.4638   15.5200  -38.4481 H   0  0  0  0  0  0  0  0  0  0  0  0
  1  2  1  0
  1  8  1  0
  1  9  1  0
  1 10  1  0
  2  3  1  0
  2  4  1  0
  2 11  1  0
  3 12  1  0
  3 13  1  0
  3 14  1  0
  4  5  2  0
  4  7  1  0
  5  6  1  0
  6 15  1  0
  7 16  1  0
  7 17  1  0
M  END
> <intraLJ>
7.547     

> <intraEL>
0.136     

> <intraDihe>
5.066     

> <interLJ>
0.000     

> <interEJ>
0.000     

> <gridLJ>
-3.385    

> <gridEL>
0.000     

> <totalE>
9.364     

> <LGFE>
-3.385  

> <LE>
-0.484  

> <SMILES>
CC(C)C(N)=NO

> <atom.dprop.GFE>
-0.022 -0.05 -0.17 0 -1.4 -1.5 -0.23 0 0 0 0 0 0 0 0 0 0

> <atom.prop.CLASS>
PRPC PRPC PRPC NCLA GENA MEOO GEND NCLA NCLA NCLA NCLA NCLA NCLA NCLA NCLA NCLA NCLA

$$$$
21_1
     RDKit          3D

 17 16  0  0  0  0  0  0  0  0999 V2000
   -3.3308    1.1499    9.9093 C   0  0  0  0  0  0  0  0  0  0  0  0
   -2.8507    1.5407    8.4964 C   0  0  0  0  0  0  0  0  0  0  0  0
   -2.6635    0.2401    7.6802 C   0  0  0  0  0  0  0  0  0  0  0  0
   -1.5247    2.2919    8.6219 C   0  0  0  0  0  0  0  0  0  0  0  0
   -1.3267    3.4749    8.2030 N   0  0  0  0  0  0  0  0  0  0  0  0
   -0.1114    4.0758    8.4318 O   0  0  0  0  0  0  0  0  0  0  0  0
   -0.4745    1.5875    9.1767 N   0  0  0  0  0  0  0  0  0  0  0  0
   -4.2695    0.6012    9.8243 H   0  0  0  0  0  0  0  0  0  0  0  0
   -3.4813    2.0589   10.4924 H   0  0  0  0  0  0  0  0  0  0  0  0
   -2.5686    0.5260   10.3820 H   0  0  0  0  0  0  0  0  0  0  0  0
   -3.5849    2.1677    8.0086 H   0  0  0  0  0  0  0  0  0  0  0  0
   -1.9576   -0.4146    8.1951 H   0  0  0  0  0  0  0  0  0  0  0  0
   -2.2723    0.5065    6.6975 H   0  0  0  0  0  0  0  0  0  0  0  0
   -3.6302   -0.2537    7.5773 H   0  0  0  0  0  0  0  0  0  0  0  0
    0.2903    3.5985    9.1884 H   0  0  0  0  0  0  0  0  0  0  0  0
    0.4042    1.7914    8.6838 H   0  0  0  0  0  0  0  0  0  0  0  0
   -0.6669    0.5825    9.2647 H   0  0  0  0  0  0  0  0  0  0  0  0
  1  2  1  0
  1  8  1  0
  1  9  1  0
  1 10  1  0
  2  3  1  0
  2  4  1  0
  2 11  1  0
  3 12  1  0
  3 13  1  0
  3 14  1  0
  4  5  2  0
  4  7  1  0
  5  6  1  0
  6 15  1  0
  7 16  1  0
  7 17  1  0
M  END
> <intraLJ>
7.547     

> <intraEL>
0.137     

> <intraDihe>
5.064     

> <interLJ>
0.000     

> <interEJ>
0.000     

> <gridLJ>
-3.359    

> <gridEL>
0.000     

> <totalE>
9.389     

> <LGFE>
-3.359  

> <LE>
-0.480  

> <SMILES>
CC(C)C(N)=NO

> <atom.dprop.GFE>
-0.36 -0.43 -0.21 0 -1.1 -0.25 -1 0 0 0 0 0 0 0 0 0 0

> <atom.prop.CLASS>
PRPC PRPC PRPC NCLA GENA MEOO GEND NCLA NCLA NCLA NCLA NCLA NCLA NCLA NCLA NCLA NCLA

$$$$
21_1
     RDKit          3D

 17 16  0  0  0  0  0  0  0  0999 V2000
  -24.6647  -16.9154    7.0138 C   0  0  0  0  0  0  0  0  0  0  0  0
  -24.7539  -17.6971    8.3406 C   0  0  0  0  0  0  0  0  0  0  0  0
  -26.0274  -18.5738    8.2923 C   0  0  0  0  0  0  0  0  0  0  0  0
  -24.8347  -16.6951    9.4929 C   0  0  0  0  0  0  0  0  0  0  0  0
  -24.0044  -16.6354   10.4528 N   0  0  0  0  0  0  0  0  0  0  0  0
  -24.1387  -15.6469   11.3990 O   0  0  0  0  0  0  0  0  0  0  0  0
  -25.9293  -15.8532    9.4938 N   0  0  0  0  0  0  0  0  0  0  0  0
  -24.6211  -17.6257    6.1875 H   0  0  0  0  0  0  0  0  0  0  0  0
  -23.7626  -16.3030    7.0275 H   0  0  0  0  0  0  0  0  0  0  0  0
  -25.5465  -16.2774    6.9190 H   0  0  0  0  0  0  0  0  0  0  0  0
  -23.8864  -18.3313    8.4638 H   0  0  0  0  0  0  0  0  0  0  0  0
  -26.8997  -17.9398    8.1214 H   0  0  0  0  0  0  0  0  0  0  0  0
  -26.1250  -19.0879    9.2493 H   0  0  0  0  0  0  0  0  0  0  0  0
  -25.9248  -19.3001    7.4855 H   0  0  0  0  0  0  0  0  0  0  0  0
  -24.6696  -14.9377   10.9785 H   0  0  0  0  0  0  0  0  0  0  0  0
  -26.2917  -15.7248   10.4471 H   0  0  0  0  0  0  0  0  0  0  0  0
  -26.6514  -16.1325    8.8190 H   0  0  0  0  0  0  0  0  0  0  0  0
  1  2  1  0
  1  8  1  0
  1  9  1  0
  1 10  1  0
  2  3  1  0
  2  4  1  0
  2 11  1  0
  3 12  1  0
  3 13  1  0
  3 14  1  0
  4  5  2  0
  4  7  1  0
  5  6  1  0
  6 15  1  0
  7 16  1  0
  7 17  1  0
M  END
> <intraLJ>
7.547     

> <intraEL>
0.137     

> <intraDihe>
5.065     

> <interLJ>
0.000     

> <interEJ>
0.000     

> <gridLJ>
-3.335    

> <gridEL>
0.000     

> <totalE>
9.413     

> <LGFE>
-3.335  

> <LE>
-0.476  

> <SMILES>
CC(C)C(N)=NO

> <atom.dprop.GFE>
-0.43 -0.36 -0.28 0 -0.64 -0.71 -0.92 0 0 0 0 0 0 0 0 0 0

> <atom.prop.CLASS>
PRPC PRPC PRPC NCLA GENA MEOO GEND NCLA NCLA NCLA NCLA NCLA NCLA NCLA NCLA NCLA NCLA

$$$$
21_1
     RDKit          3D

 17 16  0  0  0  0  0  0  0  0999 V2000
  -21.1176    8.2256   11.8754 C   0  0  0  0  0  0  0  0  0  0  0  0
  -22.6155    8.5498   11.6997 C   0  0  0  0  0  0  0  0  0  0  0  0
  -22.7412   10.0553   11.3671 C   0  0  0  0  0  0  0  0  0  0  0  0
  -23.3415    8.2256   13.0059 C   0  0  0  0  0  0  0  0  0  0  0  0
  -24.3017    7.3999   13.1084 N   0  0  0  0  0  0  0  0  0  0  0  0
  -24.8344    7.1370   14.3484 O   0  0  0  0  0  0  0  0  0  0  0  0
  -22.9441    8.9405   14.1185 N   0  0  0  0  0  0  0  0  0  0  0  0
  -20.5927    8.4685   10.9509 H   0  0  0  0  0  0  0  0  0  0  0  0
  -21.0124    7.1630   12.0962 H   0  0  0  0  0  0  0  0  0  0  0  0
  -20.7219    8.8190   12.7031 H   0  0  0  0  0  0  0  0  0  0  0  0
  -23.0350    7.9675   10.8904 H   0  0  0  0  0  0  0  0  0  0  0  0
  -22.2766   10.6436   12.1609 H   0  0  0  0  0  0  0  0  0  0  0  0
  -23.8011   10.3021   11.2951 H   0  0  0  0  0  0  0  0  0  0  0  0
  -22.2460   10.2484   10.4151 H   0  0  0  0  0  0  0  0  0  0  0  0
  -24.1456    7.3882   14.9996 H   0  0  0  0  0  0  0  0  0  0  0  0
  -23.7544    9.2013   14.6948 H   0  0  0  0  0  0  0  0  0  0  0  0
  -22.3362    9.7359   13.8890 H   0  0  0  0  0  0  0  0  0  0  0  0
  1  2  1  0
  1  8  1  0
  1  9  1  0
  1 10  1  0
  2  3  1  0
  2  4  1  0
  2 11  1  0
  3 12  1  0
  3 13  1  0
  3 14  1  0
  4  5  2  0
  4  7  1  0
  5  6  1  0
  6 15  1  0
  7 16  1  0
  7 17  1  0
M  END
> <intraLJ>
7.547     

> <intraEL>
0.137     

> <intraDihe>
5.064     

> <interLJ>
0.000     

> <interEJ>
0.000     

> <gridLJ>
-3.298    

> <gridEL>
0.000     

> <totalE>
9.450     

> <LGFE>
-3.298  

> <LE>
-0.471  

> <SMILES>
CC(C)C(N)=NO

> <atom.dprop.GFE>
-0.24 -0.51 -0.36 0 -1.1 -0.63 -0.47 0 0 0 0 0 0 0 0 0 0

> <atom.prop.CLASS>
PRPC PRPC PRPC NCLA GENA MEOO GEND NCLA NCLA NCLA NCLA NCLA NCLA NCLA NCLA NCLA NCLA

$$$$
21_1
     RDKit          3D

 17 16  0  0  0  0  0  0  0  0999 V2000
    2.7216    2.3505  -37.6538 C   0  0  0  0  0  0  0  0  0  0  0  0
    2.2250    2.1578  -39.1015 C   0  0  0  0  0  0  0  0  0  0  0  0
    2.7032    0.7696  -39.5884 C   0  0  0  0  0  0  0  0  0  0  0  0
    2.8176    3.2662  -39.9725 C   0  0  0  0  0  0  0  0  0  0  0  0
    2.1302    4.1013  -40.6390 N   0  0  0  0  0  0  0  0  0  0  0  0
    2.7716    5.0993  -41.3340 O   0  0  0  0  0  0  0  0  0  0  0  0
    4.1948    3.2958  -40.0689 N   0  0  0  0  0  0  0  0  0  0  0  0
    2.3130    1.5540  -37.0311 H   0  0  0  0  0  0  0  0  0  0  0  0
    2.3790    3.3203  -37.2918 H   0  0  0  0  0  0  0  0  0  0  0  0
    3.8136    2.3148  -37.6467 H   0  0  0  0  0  0  0  0  0  0  0  0
    1.1447    2.1981  -39.1381 H   0  0  0  0  0  0  0  0  0  0  0  0
    3.7904    0.7103  -39.5083 H   0  0  0  0  0  0  0  0  0  0  0  0
    2.4015    0.6500  -40.6297 H   0  0  0  0  0  0  0  0  0  0  0  0
    2.2368    0.0002  -38.9724 H   0  0  0  0  0  0  0  0  0  0  0  0
    3.6539    5.1976  -40.9174 H   0  0  0  0  0  0  0  0  0  0  0  0
    4.4901    3.5177  -41.0282 H   0  0  0  0  0  0  0  0  0  0  0  0
    4.6422    2.4520  -39.6913 H   0  0  0  0  0  0  0  0  0  0  0  0
  1  2  1  0
  1  8  1  0
  1  9  1  0
  1 10  1  0
  2  3  1  0
  2  4  1  0
  2 11  1  0
  3 12  1  0
  3 13  1  0
  3 14  1  0
  4  5  2  0
  4  7  1  0
  5  6  1  0
  6 15  1  0
  7 16  1  0
  7 17  1  0
M  END
> <intraLJ>
7.547     

> <intraEL>
0.137     

> <intraDihe>
5.064     

> <interLJ>
0.000     

> <interEJ>
0.000     

> <gridLJ>
-3.287    

> <gridEL>
0.000     

> <totalE>
9.461     

> <LGFE>
-3.287  

> <LE>
-0.470  

> <SMILES>
CC(C)C(N)=NO

> <atom.dprop.GFE>
-0.44 -0.46 -0.4 0 -0.74 -0.34 -0.92 0 0 0 0 0 0 0 0 0 0

> <atom.prop.CLASS>
PRPC PRPC PRPC NCLA GENA MEOO GEND NCLA NCLA NCLA NCLA NCLA NCLA NCLA NCLA NCLA NCLA

$$$$
21_1
     RDKit          3D

 17 16  0  0  0  0  0  0  0  0999 V2000
  -32.4227   16.1545   25.9706 C   0  0  0  0  0  0  0  0  0  0  0  0
  -31.0357   16.5477   26.5197 C   0  0  0  0  0  0  0  0  0  0  0  0
  -30.8842   18.0805   26.3777 C   0  0  0  0  0  0  0  0  0  0  0  0
  -29.9644   15.8238   25.7032 C   0  0  0  0  0  0  0  0  0  0  0  0
  -29.0797   15.0577   26.1976 N   0  0  0  0  0  0  0  0  0  0  0  0
  -28.2080   14.4055   25.3578 O   0  0  0  0  0  0  0  0  0  0  0  0
  -29.9461   16.0904   24.3484 N   0  0  0  0  0  0  0  0  0  0  0  0
  -33.1901   16.6793   26.5407 H   0  0  0  0  0  0  0  0  0  0  0  0
  -32.5496   15.0769   26.0778 H   0  0  0  0  0  0  0  0  0  0  0  0
  -32.4773   16.4330   24.9156 H   0  0  0  0  0  0  0  0  0  0  0  0
  -30.9517   16.2741   27.5629 H   0  0  0  0  0  0  0  0  0  0  0  0
  -31.0151   18.3640   25.3316 H   0  0  0  0  0  0  0  0  0  0  0  0
  -29.8845   18.3578   26.7143 H   0  0  0  0  0  0  0  0  0  0  0  0
  -31.6370   18.5681   26.9979 H   0  0  0  0  0  0  0  0  0  0  0  0
  -28.6414   14.3844   24.4784 H   0  0  0  0  0  0  0  0  0  0  0  0
  -28.9809   16.1714   24.0042 H   0  0  0  0  0  0  0  0  0  0  0  0
  -30.5384   16.8879   24.0878 H   0  0  0  0  0  0  0  0  0  0  0  0
  1  2  1  0
  1  8  1  0
  1  9  1  0
  1 10  1  0
  2  3  1  0
  2  4  1  0
  2 11  1  0
  3 12  1  0
  3 13  1  0
  3 14  1  0
  4  5  2  0
  4  7  1  0
  5  6  1  0
  6 15  1  0
  7 16  1  0
  7 17  1  0
M  END
> <intraLJ>
7.553     

> <intraEL>
0.136     

> <intraDihe>
5.074     

> <interLJ>
0.000     

> <interEJ>
0.000     

> <gridLJ>
-3.068    

> <gridEL>
0.000     

> <totalE>
9.695     

> <LGFE>
-3.068  

> <LE>
-0.438  

> <SMILES>
CC(C)C(N)=NO

> <atom.dprop.GFE>
-0.22 -0.29 -0.17 0 -1 -0.97 -0.42 0 0 0 0 0 0 0 0 0 0

> <atom.prop.CLASS>
PRPC PRPC PRPC NCLA GENA MEOO GEND NCLA NCLA NCLA NCLA NCLA NCLA NCLA NCLA NCLA NCLA

$$$$
21_1
     RDKit          3D

 17 16  0  0  0  0  0  0  0  0999 V2000
   -7.5415    8.7297    7.4772 C   0  0  0  0  0  0  0  0  0  0  0  0
   -6.3756    9.7305    7.6137 C   0  0  0  0  0  0  0  0  0  0  0  0
   -6.8194   10.8493    8.5855 C   0  0  0  0  0  0  0  0  0  0  0  0
   -6.0654   10.3098    6.2330 C   0  0  0  0  0  0  0  0  0  0  0  0
   -4.9396   10.2176    5.6514 N   0  0  0  0  0  0  0  0  0  0  0  0
   -4.7957   10.7187    4.3791 O   0  0  0  0  0  0  0  0  0  0  0  0
   -7.0793   11.0288    5.6312 N   0  0  0  0  0  0  0  0  0  0  0  0
   -7.7760    8.3241    8.4620 H   0  0  0  0  0  0  0  0  0  0  0  0
   -7.2373    7.9265    6.8055 H   0  0  0  0  0  0  0  0  0  0  0  0
   -8.4089    9.2511    7.0656 H   0  0  0  0  0  0  0  0  0  0  0  0
   -5.4993    9.2367    8.0116 H   0  0  0  0  0  0  0  0  0  0  0  0
   -7.7306   11.3182    8.2091 H   0  0  0  0  0  0  0  0  0  0  0  0
   -6.0195   11.5884    8.6440 H   0  0  0  0  0  0  0  0  0  0  0  0
   -6.9981   10.4120    9.5682 H   0  0  0  0  0  0  0  0  0  0  0  0
   -5.6994   10.7664    4.0014 H   0  0  0  0  0  0  0  0  0  0  0  0
   -6.7059   11.8587    5.1533 H   0  0  0  0  0  0  0  0  0  0  0  0
   -7.8543   11.2425    6.2704 H   0  0  0  0  0  0  0  0  0  0  0  0
  1  2  1  0
  1  8  1  0
  1  9  1  0
  1 10  1  0
  2  3  1  0
  2  4  1  0
  2 11  1  0
  3 12  1  0
  3 13  1  0
  3 14  1  0
  4  5  2  0
  4  7  1  0
  5  6  1  0
  6 15  1  0
  7 16  1  0
  7 17  1  0
M  END
> <intraLJ>
7.547     

> <intraEL>
0.137     

> <intraDihe>
5.064     

> <interLJ>
0.000     

> <interEJ>
0.000     

> <gridLJ>
-3.033    

> <gridEL>
0.000     

> <totalE>
9.716     

> <LGFE>
-3.033  

> <LE>
-0.433  

> <SMILES>
CC(C)C(N)=NO

> <atom.dprop.GFE>
-0.093 -0.12 -0.14 0 -1.1 -0.89 -0.65 0 0 0 0 0 0 0 0 0 0

> <atom.prop.CLASS>
PRPC PRPC PRPC NCLA GENA MEOO GEND NCLA NCLA NCLA NCLA NCLA NCLA NCLA NCLA NCLA NCLA

$$$$
21_1
     RDKit          3D

 17 16  0  0  0  0  0  0  0  0999 V2000
   13.8041   10.2915    4.6819 C   0  0  0  0  0  0  0  0  0  0  0  0
   14.2659    8.8479    4.9690 C   0  0  0  0  0  0  0  0  0  0  0  0
   15.7996    8.7909    4.7757 C   0  0  0  0  0  0  0  0  0  0  0  0
   13.5653    7.9071    3.9880 C   0  0  0  0  0  0  0  0  0  0  0  0
   12.8187    6.9379    4.3307 N   0  0  0  0  0  0  0  0  0  0  0  0
   12.1854    6.1993    3.3591 O   0  0  0  0  0  0  0  0  0  0  0  0
   13.8318    8.1134    2.6489 N   0  0  0  0  0  0  0  0  0  0  0  0
   14.3119   10.9683    5.3699 H   0  0  0  0  0  0  0  0  0  0  0  0
   12.7253   10.3503    4.8286 H   0  0  0  0  0  0  0  0  0  0  0  0
   14.0538   10.5438    3.6486 H   0  0  0  0  0  0  0  0  0  0  0  0
   14.0219    8.5690    5.9853 H   0  0  0  0  0  0  0  0  0  0  0  0
   16.0515    9.1168    3.7646 H   0  0  0  0  0  0  0  0  0  0  0  0
   16.1248    7.7605    4.9245 H   0  0  0  0  0  0  0  0  0  0  0  0
   16.2719    9.4428    5.5111 H   0  0  0  0  0  0  0  0  0  0  0  0
   12.1547    6.7684    2.5611 H   0  0  0  0  0  0  0  0  0  0  0  0
   13.9336    7.2183    2.1537 H   0  0  0  0  0  0  0  0  0  0  0  0
   14.6162    8.7570    2.4898 H   0  0  0  0  0  0  0  0  0  0  0  0
  1  2  1  0
  1  8  1  0
  1  9  1  0
  1 10  1  0
  2  3  1  0
  2  4  1  0
  2 11  1  0
  3 12  1  0
  3 13  1  0
  3 14  1  0
  4  5  2  0
  4  7  1  0
  5  6  1  0
  6 15  1  0
  7 16  1  0
  7 17  1  0
M  END
> <intraLJ>
7.547     

> <intraEL>
0.137     

> <intraDihe>
5.065     

> <interLJ>
0.000     

> <interEJ>
0.000     

> <gridLJ>
-2.913    

> <gridEL>
0.000     

> <totalE>
9.835     

> <LGFE>
-2.913  

> <LE>
-0.416  

> <SMILES>
CC(C)C(N)=NO

> <atom.dprop.GFE>
-0.12 -0.088 -0.13 0 -0.86 -0.99 -0.72 0 0 0 0 0 0 0 0 0 0

> <atom.prop.CLASS>
PRPC PRPC PRPC NCLA GENA MEOO GEND NCLA NCLA NCLA NCLA NCLA NCLA NCLA NCLA NCLA NCLA

$$$$
21_1
     RDKit          3D

 17 16  0  0  0  0  0  0  0  0999 V2000
   -8.5832   -3.7447   11.7621 C   0  0  0  0  0  0  0  0  0  0  0  0
   -9.8355   -4.0441   10.9126 C   0  0  0  0  0  0  0  0  0  0  0  0
  -11.0781   -3.6168   11.7288 C   0  0  0  0  0  0  0  0  0  0  0  0
   -9.8770   -5.5436   10.6160 C   0  0  0  0  0  0  0  0  0  0  0  0
   -9.8788   -6.0454    9.4488 N   0  0  0  0  0  0  0  0  0  0  0  0
   -9.8489   -7.4123    9.3032 O   0  0  0  0  0  0  0  0  0  0  0  0
   -9.9814   -6.3793   11.7103 N   0  0  0  0  0  0  0  0  0  0  0  0
   -8.5565   -2.6782   11.9884 H   0  0  0  0  0  0  0  0  0  0  0  0
   -7.6974   -4.0277   11.1927 H   0  0  0  0  0  0  0  0  0  0  0  0
   -8.6344   -4.3269   12.6852 H   0  0  0  0  0  0  0  0  0  0  0  0
   -9.8054   -3.4858    9.9866 H   0  0  0  0  0  0  0  0  0  0  0  0
  -11.0853   -4.1449   12.6843 H   0  0  0  0  0  0  0  0  0  0  0  0
  -11.9692   -3.8759   11.1557 H   0  0  0  0  0  0  0  0  0  0  0  0
  -11.0384   -2.5396   11.8932 H   0  0  0  0  0  0  0  0  0  0  0  0
   -9.4874   -7.7677   10.1426 H   0  0  0  0  0  0  0  0  0  0  0  0
  -10.6199   -7.1609   11.5146 H   0  0  0  0  0  0  0  0  0  0  0  0
  -10.2067   -5.8786   12.5782 H   0  0  0  0  0  0  0  0  0  0  0  0
  1  2  1  0
  1  8  1  0
  1  9  1  0
  1 10  1  0
  2  3  1  0
  2  4  1  0
  2 11  1  0
  3 12  1  0
  3 13  1  0
  3 14  1  0
  4  5  2  0
  4  7  1  0
  5  6  1  0
  6 15  1  0
  7 16  1  0
  7 17  1  0
M  END
> <intraLJ>
7.547     

> <intraEL>
0.137     

> <intraDihe>
5.064     

> <interLJ>
0.000     

> <interEJ>
0.000     

> <gridLJ>
-2.865    

> <gridEL>
0.000     

> <totalE>
9.883     

> <LGFE>
-2.865  

> <LE>
-0.409  

> <SMILES>
CC(C)C(N)=NO

> <atom.dprop.GFE>
-0.26 -0.32 -0.27 0 -0.9 -0.67 -0.44 0 0 0 0 0 0 0 0 0 0

> <atom.prop.CLASS>
PRPC PRPC PRPC NCLA GENA MEOO GEND NCLA NCLA NCLA NCLA NCLA NCLA NCLA NCLA NCLA NCLA

$$$$
21_1
     RDKit          3D

 17 16  0  0  0  0  0  0  0  0999 V2000
   19.9057   -5.7167  -10.7671 C   0  0  0  0  0  0  0  0  0  0  0  0
   18.9423   -4.5123  -10.7349 C   0  0  0  0  0  0  0  0  0  0  0  0
   19.5160   -3.4183  -11.6660 C   0  0  0  0  0  0  0  0  0  0  0  0
   18.8495   -3.9999   -9.2972 C   0  0  0  0  0  0  0  0  0  0  0  0
   17.7725   -3.9317   -8.6267 N   0  0  0  0  0  0  0  0  0  0  0  0
   17.8198   -3.5175   -7.3165 O   0  0  0  0  0  0  0  0  0  0  0  0
   20.0224   -3.5294   -8.7403 N   0  0  0  0  0  0  0  0  0  0  0  0
   19.9864   -6.0772  -11.7932 H   0  0  0  0  0  0  0  0  0  0  0  0
   19.5060   -6.5027  -10.1257 H   0  0  0  0  0  0  0  0  0  0  0  0
   20.8837   -5.3973  -10.3996 H   0  0  0  0  0  0  0  0  0  0  0  0
   17.9618   -4.8042  -11.0862 H   0  0  0  0  0  0  0  0  0  0  0  0
   20.5245   -3.1555  -11.3407 H   0  0  0  0  0  0  0  0  0  0  0  0
   18.8676   -2.5434  -11.6054 H   0  0  0  0  0  0  0  0  0  0  0  0
   19.5362   -3.7998  -12.6872 H   0  0  0  0  0  0  0  0  0  0  0  0
   18.7415   -3.6664   -7.0169 H   0  0  0  0  0  0  0  0  0  0  0  0
   19.8484   -2.6867   -8.1779 H   0  0  0  0  0  0  0  0  0  0  0  0
   20.7746   -3.4098   -9.4292 H   0  0  0  0  0  0  0  0  0  0  0  0
  1  2  1  0
  1  8  1  0
  1  9  1  0
  1 10  1  0
  2  3  1  0
  2  4  1  0
  2 11  1  0
  3 12  1  0
  3 13  1  0
  3 14  1  0
  4  5  2  0
  4  7  1  0
  5  6  1  0
  6 15  1  0
  7 16  1  0
  7 17  1  0
M  END
> <intraLJ>
7.547     

> <intraEL>
0.137     

> <intraDihe>
5.064     

> <interLJ>
0.000     

> <interEJ>
0.000     

> <gridLJ>
-2.825    

> <gridEL>
0.000     

> <totalE>
9.924     

> <LGFE>
-2.825  

> <LE>
-0.404  

> <SMILES>
CC(C)C(N)=NO

> <atom.dprop.GFE>
-0.22 -0.3 -0.35 0 -1.1 -0.45 -0.43 0 0 0 0 0 0 0 0 0 0

> <atom.prop.CLASS>
PRPC PRPC PRPC NCLA GENA MEOO GEND NCLA NCLA NCLA NCLA NCLA NCLA NCLA NCLA NCLA NCLA

$$$$
21_1
     RDKit          3D

 17 16  0  0  0  0  0  0  0  0999 V2000
   23.8934   -0.5957  -18.1376 C   0  0  0  0  0  0  0  0  0  0  0  0
   23.6057    0.6724  -18.9674 C   0  0  0  0  0  0  0  0  0  0  0  0
   22.1558    1.1199  -18.6664 C   0  0  0  0  0  0  0  0  0  0  0  0
   23.7664    0.3327  -20.4497 C   0  0  0  0  0  0  0  0  0  0  0  0
   24.5750    0.9162  -21.2370 N   0  0  0  0  0  0  0  0  0  0  0  0
   24.6828    0.4800  -22.5364 O   0  0  0  0  0  0  0  0  0  0  0  0
   22.9177   -0.6353  -20.9493 N   0  0  0  0  0  0  0  0  0  0  0  0
   23.7662   -0.3623  -17.0800 H   0  0  0  0  0  0  0  0  0  0  0  0
   24.9184   -0.9148  -18.3288 H   0  0  0  0  0  0  0  0  0  0  0  0
   23.1964   -1.3813  -18.4389 H   0  0  0  0  0  0  0  0  0  0  0  0
   24.2895    1.4649  -18.6946 H   0  0  0  0  0  0  0  0  0  0  0  0
   21.4677    0.3044  -18.8974 H   0  0  0  0  0  0  0  0  0  0  0  0
   21.9283    1.9846  -19.2911 H   0  0  0  0  0  0  0  0  0  0  0  0
   22.0817    1.3892  -17.6124 H   0  0  0  0  0  0  0  0  0  0  0  0
   24.3510   -0.4427  -22.5424 H   0  0  0  0  0  0  0  0  0  0  0  0
   22.5891   -0.3839  -21.8902 H   0  0  0  0  0  0  0  0  0  0  0  0
   22.1558   -0.8739  -20.3033 H   0  0  0  0  0  0  0  0  0  0  0  0
  1  2  1  0
  1  8  1  0
  1  9  1  0
  1 10  1  0
  2  3  1  0
  2  4  1  0
  2 11  1  0
  3 12  1  0
  3 13  1  0
  3 14  1  0
  4  5  2  0
  4  7  1  0
  5  6  1  0
  6 15  1  0
  7 16  1  0
  7 17  1  0
M  END
> <intraLJ>
7.547     

> <intraEL>
0.136     

> <intraDihe>
5.065     

> <interLJ>
0.000     

> <interEJ>
0.000     

> <gridLJ>
-2.827    

> <gridEL>
0.000     

> <totalE>
9.921     

> <LGFE>
-2.827  

> <LE>
-0.404  

> <SMILES>
CC(C)C(N)=NO

> <atom.dprop.GFE>
-0.27 -0.42 -0.31 0 -0.4 -0.77 -0.67 0 0 0 0 0 0 0 0 0 0

> <atom.prop.CLASS>
PRPC PRPC PRPC NCLA GENA MEOO GEND NCLA NCLA NCLA NCLA NCLA NCLA NCLA NCLA NCLA NCLA

$$$$
21_1
     RDKit          3D

 17 16  0  0  0  0  0  0  0  0999 V2000
  -14.6577   12.4943  -11.4795 C   0  0  0  0  0  0  0  0  0  0  0  0
  -15.6316   11.4885  -10.8320 C   0  0  0  0  0  0  0  0  0  0  0  0
  -17.0544   11.8002  -11.3530 C   0  0  0  0  0  0  0  0  0  0  0  0
  -15.5670   11.6549   -9.3133 C   0  0  0  0  0  0  0  0  0  0  0  0
  -15.2587   10.7277   -8.5013 N   0  0  0  0  0  0  0  0  0  0  0  0
  -15.1665   11.0110   -7.1590 O   0  0  0  0  0  0  0  0  0  0  0  0
  -15.9341   12.8909   -8.8189 N   0  0  0  0  0  0  0  0  0  0  0  0
  -14.7104   12.3894  -12.5636 H   0  0  0  0  0  0  0  0  0  0  0  0
  -13.6471   12.2771  -11.1322 H   0  0  0  0  0  0  0  0  0  0  0  0
  -14.9443   13.5058  -11.1822 H   0  0  0  0  0  0  0  0  0  0  0  0
  -15.3641   10.4762  -11.1036 H   0  0  0  0  0  0  0  0  0  0  0  0
  -17.3083   12.8363  -11.1207 H   0  0  0  0  0  0  0  0  0  0  0  0
  -17.7551   11.1272  -10.8573 H   0  0  0  0  0  0  0  0  0  0  0  0
  -17.0783   11.6383  -12.4310 H   0  0  0  0  0  0  0  0  0  0  0  0
  -15.0267   11.9794   -7.0940 H   0  0  0  0  0  0  0  0  0  0  0  0
  -16.4857   12.7916   -7.9572 H   0  0  0  0  0  0  0  0  0  0  0  0
  -16.3847   13.4876   -9.5229 H   0  0  0  0  0  0  0  0  0  0  0  0
  1  2  1  0
  1  8  1  0
  1  9  1  0
  1 10  1  0
  2  3  1  0
  2  4  1  0
  2 11  1  0
  3 12  1  0
  3 13  1  0
  3 14  1  0
  4  5  2  0
  4  7  1  0
  5  6  1  0
  6 15  1  0
  7 16  1  0
  7 17  1  0
M  END
> <intraLJ>
7.547     

> <intraEL>
0.137     

> <intraDihe>
5.065     

> <interLJ>
0.000     

> <interEJ>
0.000     

> <gridLJ>
-2.906    

> <gridEL>
0.000     

> <totalE>
9.842     

> <LGFE>
-2.906  

> <LE>
-0.415  

> <SMILES>
CC(C)C(N)=NO

> <atom.dprop.GFE>
-0.046 -0.12 -0.15 0 -1 -1.1 -0.42 0 0 0 0 0 0 0 0 0 0

> <atom.prop.CLASS>
PRPC PRPC PRPC NCLA GENA MEOO GEND NCLA NCLA NCLA NCLA NCLA NCLA NCLA NCLA NCLA NCLA

$$$$
21_1
     RDKit          3D

 17 16  0  0  0  0  0  0  0  0999 V2000
  -41.8577   -2.8158   26.3480 C   0  0  0  0  0  0  0  0  0  0  0  0
  -40.3232   -2.6584   26.3493 C   0  0  0  0  0  0  0  0  0  0  0  0
  -39.9804   -1.3254   25.6433 C   0  0  0  0  0  0  0  0  0  0  0  0
  -39.7108   -3.8391   25.5947 C   0  0  0  0  0  0  0  0  0  0  0  0
  -38.8763   -4.6564   26.0945 N   0  0  0  0  0  0  0  0  0  0  0  0
  -38.4440   -5.7224   25.3415 O   0  0  0  0  0  0  0  0  0  0  0  0
  -40.0616   -3.9611   24.2646 N   0  0  0  0  0  0  0  0  0  0  0  0
  -42.3001   -1.9684   26.8730 H   0  0  0  0  0  0  0  0  0  0  0  0
  -42.1153   -3.7455   26.8562 H   0  0  0  0  0  0  0  0  0  0  0  0
  -42.2093   -2.8466   25.3141 H   0  0  0  0  0  0  0  0  0  0  0  0
  -39.9473   -2.6342   27.3633 H   0  0  0  0  0  0  0  0  0  0  0  0
  -40.3992   -1.3291   24.6350 H   0  0  0  0  0  0  0  0  0  0  0  0
  -38.8947   -1.2345   25.5930 H   0  0  0  0  0  0  0  0  0  0  0  0
  -40.3988   -0.5019   26.2228 H   0  0  0  0  0  0  0  0  0  0  0  0
  -39.1233   -5.8591   24.6476 H   0  0  0  0  0  0  0  0  0  0  0  0
  -39.2523   -4.2427   23.6968 H   0  0  0  0  0  0  0  0  0  0  0  0
  -40.5454   -3.1322   23.8990 H   0  0  0  0  0  0  0  0  0  0  0  0
  1  2  1  0
  1  8  1  0
  1  9  1  0
  1 10  1  0
  2  3  1  0
  2  4  1  0
  2 11  1  0
  3 12  1  0
  3 13  1  0
  3 14  1  0
  4  5  2  0
  4  7  1  0
  5  6  1  0
  6 15  1  0
  7 16  1  0
  7 17  1  0
M  END
> <intraLJ>
7.547     

> <intraEL>
0.137     

> <intraDihe>
5.064     

> <interLJ>
0.000     

> <interEJ>
0.000     

> <gridLJ>
-2.797    

> <gridEL>
0.000     

> <totalE>
9.951     

> <LGFE>
-2.797  

> <LE>
-0.400  

> <SMILES>
CC(C)C(N)=NO

> <atom.dprop.GFE>
-0.24 -0.38 -0.42 0 -0.57 -0.47 -0.72 0 0 0 0 0 0 0 0 0 0

> <atom.prop.CLASS>
PRPC PRPC PRPC NCLA GENA MEOO GEND NCLA NCLA NCLA NCLA NCLA NCLA NCLA NCLA NCLA NCLA

$$$$
21_1
     RDKit          3D

 17 16  0  0  0  0  0  0  0  0999 V2000
    0.4570    5.4879  -30.4369 C   0  0  0  0  0  0  0  0  0  0  0  0
    1.8358    5.2852  -29.7755 C   0  0  0  0  0  0  0  0  0  0  0  0
    1.8641    3.8672  -29.1580 C   0  0  0  0  0  0  0  0  0  0  0  0
    2.0176    6.3475  -28.6907 C   0  0  0  0  0  0  0  0  0  0  0  0
    2.9883    7.1658  -28.6419 N   0  0  0  0  0  0  0  0  0  0  0  0
    3.0124    8.1241  -27.6562 O   0  0  0  0  0  0  0  0  0  0  0  0
    1.0801    6.3508  -27.6768 N   0  0  0  0  0  0  0  0  0  0  0  0
    0.3164    4.7236  -31.2021 H   0  0  0  0  0  0  0  0  0  0  0  0
    0.4277    6.4793  -30.8898 H   0  0  0  0  0  0  0  0  0  0  0  0
   -0.3182    5.4050  -29.6714 H   0  0  0  0  0  0  0  0  0  0  0  0
    2.6236    5.3715  -30.5117 H   0  0  0  0  0  0  0  0  0  0  0  0
    1.0409    3.7625  -28.4485 H   0  0  0  0  0  0  0  0  0  0  0  0
    2.8163    3.7380  -28.6421 H   0  0  0  0  0  0  0  0  0  0  0  0
    1.7686    3.1325  -29.9580 H   0  0  0  0  0  0  0  0  0  0  0  0
    2.0857    8.2250  -27.3517 H   0  0  0  0  0  0  0  0  0  0  0  0
    1.5250    6.5287  -26.7673 H   0  0  0  0  0  0  0  0  0  0  0  0
    0.4821    5.5158  -27.6799 H   0  0  0  0  0  0  0  0  0  0  0  0
  1  2  1  0
  1  8  1  0
  1  9  1  0
  1 10  1  0
  2  3  1  0
  2  4  1  0
  2 11  1  0
  3 12  1  0
  3 13  1  0
  3 14  1  0
  4  5  2  0
  4  7  1  0
  5  6  1  0
  6 15  1  0
  7 16  1  0
  7 17  1  0
M  END
> <intraLJ>
7.556     

> <intraEL>
0.135     

> <intraDihe>
5.076     

> <interLJ>
0.000     

> <interEJ>
0.000     

> <gridLJ>
-2.832    

> <gridEL>
0.000     

> <totalE>
9.936     

> <LGFE>
-2.832  

> <LE>
-0.405  

> <SMILES>
CC(C)C(N)=NO

> <atom.dprop.GFE>
-0.018 0.073 -0.094 0 -1.3 -1 -0.44 0 0 0 0 0 0 0 0 0 0

> <atom.prop.CLASS>
PRPC PRPC PRPC NCLA GENA MEOO GEND NCLA NCLA NCLA NCLA NCLA NCLA NCLA NCLA NCLA NCLA

$$$$
21_1
     RDKit          3D

 17 16  0  0  0  0  0  0  0  0999 V2000
    9.1065   -6.3297  -12.6516 C   0  0  0  0  0  0  0  0  0  0  0  0
    8.3662   -6.6025  -13.9771 C   0  0  0  0  0  0  0  0  0  0  0  0
    8.6245   -8.0754  -14.3726 C   0  0  0  0  0  0  0  0  0  0  0  0
    8.9133   -5.6553  -15.0456 C   0  0  0  0  0  0  0  0  0  0  0  0
    8.2100   -4.8160  -15.6901 N   0  0  0  0  0  0  0  0  0  0  0  0
    8.8230   -3.9667  -16.5808 O   0  0  0  0  0  0  0  0  0  0  0  0
   10.2534   -5.7889  -15.3510 N   0  0  0  0  0  0  0  0  0  0  0  0
    8.7298   -7.0126  -11.8894 H   0  0  0  0  0  0  0  0  0  0  0  0
    8.9212   -5.2976  -12.3524 H   0  0  0  0  0  0  0  0  0  0  0  0
   10.1768   -6.4865  -12.8054 H   0  0  0  0  0  0  0  0  0  0  0  0
    7.3030   -6.4453  -13.8546 H   0  0  0  0  0  0  0  0  0  0  0  0
    9.6997   -8.2481  -14.4514 H   0  0  0  0  0  0  0  0  0  0  0  0
    8.1484   -8.2591  -15.3366 H   0  0  0  0  0  0  0  0  0  0  0  0
    8.1926   -8.7257  -13.6114 H   0  0  0  0  0  0  0  0  0  0  0  0
    9.7662   -3.9282  -16.3155 H   0  0  0  0  0  0  0  0  0  0  0  0
   10.4097   -5.6937  -16.3625 H   0  0  0  0  0  0  0  0  0  0  0  0
   10.6734   -6.6375  -14.9533 H   0  0  0  0  0  0  0  0  0  0  0  0
  1  2  1  0
  1  8  1  0
  1  9  1  0
  1 10  1  0
  2  3  1  0
  2  4  1  0
  2 11  1  0
  3 12  1  0
  3 13  1  0
  3 14  1  0
  4  5  2  0
  4  7  1  0
  5  6  1  0
  6 15  1  0
  7 16  1  0
  7 17  1  0
M  END
> <intraLJ>
7.547     

> <intraEL>
0.137     

> <intraDihe>
5.064     

> <interLJ>
0.000     

> <interEJ>
0.000     

> <gridLJ>
-2.767    

> <gridEL>
0.000     

> <totalE>
9.981     

> <LGFE>
-2.767  

> <LE>
-0.395  

> <SMILES>
CC(C)C(N)=NO

> <atom.dprop.GFE>
-0.25 -0.12 -0.01 0 -0.9 -0.87 -0.62 0 0 0 0 0 0 0 0 0 0

> <atom.prop.CLASS>
PRPC PRPC PRPC NCLA GENA MEOO GEND NCLA NCLA NCLA NCLA NCLA NCLA NCLA NCLA NCLA NCLA

$$$$
21_1
     RDKit          3D

 17 16  0  0  0  0  0  0  0  0999 V2000
  -33.9306    8.1497   12.4762 C   0  0  0  0  0  0  0  0  0  0  0  0
  -34.6418    9.0612   13.4974 C   0  0  0  0  0  0  0  0  0  0  0  0
  -33.5736    9.9706   14.1493 C   0  0  0  0  0  0  0  0  0  0  0  0
  -35.3143    8.1812   14.5517 C   0  0  0  0  0  0  0  0  0  0  0  0
  -36.5581    8.1935   14.8108 N   0  0  0  0  0  0  0  0  0  0  0  0
  -37.0626    7.3079   15.7336 O   0  0  0  0  0  0  0  0  0  0  0  0
  -34.4773    7.3750   15.2976 N   0  0  0  0  0  0  0  0  0  0  0  0
  -33.4372    8.7731   11.7297 H   0  0  0  0  0  0  0  0  0  0  0  0
  -34.6744    7.5122   11.9975 H   0  0  0  0  0  0  0  0  0  0  0  0
  -33.1961    7.5350   13.0020 H   0  0  0  0  0  0  0  0  0  0  0  0
  -35.3824    9.6755   13.0031 H   0  0  0  0  0  0  0  0  0  0  0  0
  -32.8002    9.3520   14.6089 H   0  0  0  0  0  0  0  0  0  0  0  0
  -34.0620   10.5796   14.9110 H   0  0  0  0  0  0  0  0  0  0  0  0
  -33.1384   10.6098   13.3807 H   0  0  0  0  0  0  0  0  0  0  0  0
  -36.4128    6.5759   15.7923 H   0  0  0  0  0  0  0  0  0  0  0  0
  -34.7724    7.3522   16.2820 H   0  0  0  0  0  0  0  0  0  0  0  0
  -33.4840    7.6064   15.1768 H   0  0  0  0  0  0  0  0  0  0  0  0
  1  2  1  0
  1  8  1  0
  1  9  1  0
  1 10  1  0
  2  3  1  0
  2  4  1  0
  2 11  1  0
  3 12  1  0
  3 13  1  0
  3 14  1  0
  4  5  2  0
  4  7  1  0
  5  6  1  0
  6 15  1  0
  7 16  1  0
  7 17  1  0
M  END
> <intraLJ>
7.547     

> <intraEL>
0.136     

> <intraDihe>
5.065     

> <interLJ>
0.000     

> <interEJ>
0.000     

> <gridLJ>
-2.745    

> <gridEL>
0.000     

> <totalE>
10.003    

> <LGFE>
-2.745  

> <LE>
-0.392  

> <SMILES>
CC(C)C(N)=NO

> <atom.dprop.GFE>
-0.32 -0.33 -0.34 0 -0.79 -0.48 -0.49 0 0 0 0 0 0 0 0 0 0

> <atom.prop.CLASS>
PRPC PRPC PRPC NCLA GENA MEOO GEND NCLA NCLA NCLA NCLA NCLA NCLA NCLA NCLA NCLA NCLA

$$$$
21_1
     RDKit          3D

 17 16  0  0  0  0  0  0  0  0999 V2000
    3.1760   13.5101   -8.8416 C   0  0  0  0  0  0  0  0  0  0  0  0
    2.9592   12.2191   -9.6577 C   0  0  0  0  0  0  0  0  0  0  0  0
    2.1781   12.5916  -10.9398 C   0  0  0  0  0  0  0  0  0  0  0  0
    2.1575   11.2330   -8.8074 C   0  0  0  0  0  0  0  0  0  0  0  0
    2.5588   10.0719   -8.4834 N   0  0  0  0  0  0  0  0  0  0  0  0
    1.7804    9.2965   -7.6568 O   0  0  0  0  0  0  0  0  0  0  0  0
    0.8911   11.6381   -8.4344 N   0  0  0  0  0  0  0  0  0  0  0  0
    3.7353   14.2224   -9.4491 H   0  0  0  0  0  0  0  0  0  0  0  0
    3.7390   13.2650   -7.9406 H   0  0  0  0  0  0  0  0  0  0  0  0
    2.2023   13.9253   -8.5710 H   0  0  0  0  0  0  0  0  0  0  0  0
    3.9100   11.7818   -9.9313 H   0  0  0  0  0  0  0  0  0  0  0  0
    1.2385   13.0756  -10.6661 H   0  0  0  0  0  0  0  0  0  0  0  0
    1.9745   11.6749  -11.4946 H   0  0  0  0  0  0  0  0  0  0  0  0
    2.7887   13.2657  -11.5412 H   0  0  0  0  0  0  0  0  0  0  0  0
    1.1892    9.9162   -7.1792 H   0  0  0  0  0  0  0  0  0  0  0  0
    0.2254   10.8569   -8.4905 H   0  0  0  0  0  0  0  0  0  0  0  0
    0.5746   12.4779   -8.9337 H   0  0  0  0  0  0  0  0  0  0  0  0
  1  2  1  0
  1  8  1  0
  1  9  1  0
  1 10  1  0
  2  3  1  0
  2  4  1  0
  2 11  1  0
  3 12  1  0
  3 13  1  0
  3 14  1  0
  4  5  2  0
  4  7  1  0
  5  6  1  0
  6 15  1  0
  7 16  1  0
  7 17  1  0
M  END
> <intraLJ>
7.547     

> <intraEL>
0.137     

> <intraDihe>
5.064     

> <interLJ>
0.000     

> <interEJ>
0.000     

> <gridLJ>
-2.725    

> <gridEL>
0.000     

> <totalE>
10.023    

> <LGFE>
-2.725  

> <LE>
-0.389  

> <SMILES>
CC(C)C(N)=NO

> <atom.dprop.GFE>
-0.29 -0.32 -0.19 0 -0.59 -0.78 -0.56 0 0 0 0 0 0 0 0 0 0

> <atom.prop.CLASS>
PRPC PRPC PRPC NCLA GENA MEOO GEND NCLA NCLA NCLA NCLA NCLA NCLA NCLA NCLA NCLA NCLA

$$$$
21_1
     RDKit          3D

 17 16  0  0  0  0  0  0  0  0999 V2000
  -27.4728   -2.8712   32.0673 C   0  0  0  0  0  0  0  0  0  0  0  0
  -28.1708   -1.9259   33.0667 C   0  0  0  0  0  0  0  0  0  0  0  0
  -28.9115   -2.7969   34.1086 C   0  0  0  0  0  0  0  0  0  0  0  0
  -29.1603   -1.0485   32.2990 C   0  0  0  0  0  0  0  0  0  0  0  0
  -29.1239    0.2212   32.2721 N   0  0  0  0  0  0  0  0  0  0  0  0
  -30.0260    0.9044   31.4911 O   0  0  0  0  0  0  0  0  0  0  0  0
  -30.1867   -1.7084   31.6525 N   0  0  0  0  0  0  0  0  0  0  0  0
  -26.7760   -3.5092   32.6122 H   0  0  0  0  0  0  0  0  0  0  0  0
  -26.9337   -2.2704   31.3343 H   0  0  0  0  0  0  0  0  0  0  0  0
  -28.2304   -3.4785   31.5665 H   0  0  0  0  0  0  0  0  0  0  0  0
  -27.4422   -1.3055   33.5709 H   0  0  0  0  0  0  0  0  0  0  0  0
  -29.6146   -3.4574   33.5973 H   0  0  0  0  0  0  0  0  0  0  0  0
  -29.4515   -2.1344   34.7861 H   0  0  0  0  0  0  0  0  0  0  0  0
  -28.1781   -3.3831   34.6632 H   0  0  0  0  0  0  0  0  0  0  0  0
  -30.3373    0.2673   30.8138 H   0  0  0  0  0  0  0  0  0  0  0  0
  -31.0703   -1.1914   31.7455 H   0  0  0  0  0  0  0  0  0  0  0  0
  -30.2634   -2.6959   31.9241 H   0  0  0  0  0  0  0  0  0  0  0  0
  1  2  1  0
  1  8  1  0
  1  9  1  0
  1 10  1  0
  2  3  1  0
  2  4  1  0
  2 11  1  0
  3 12  1  0
  3 13  1  0
  3 14  1  0
  4  5  2  0
  4  7  1  0
  5  6  1  0
  6 15  1  0
  7 16  1  0
  7 17  1  0
M  END
> <intraLJ>
7.547     

> <intraEL>
0.137     

> <intraDihe>
5.064     

> <interLJ>
0.000     

> <interEJ>
0.000     

> <gridLJ>
-2.653    

> <gridEL>
0.000     

> <totalE>
10.095    

> <LGFE>
-2.653  

> <LE>
-0.379  

> <SMILES>
CC(C)C(N)=NO

> <atom.dprop.GFE>
-0.26 -0.12 -0.073 0 -0.82 -1 -0.38 0 0 0 0 0 0 0 0 0 0

> <atom.prop.CLASS>
PRPC PRPC PRPC NCLA GENA MEOO GEND NCLA NCLA NCLA NCLA NCLA NCLA NCLA NCLA NCLA NCLA

$$$$
21_1
     RDKit          3D

 17 16  0  0  0  0  0  0  0  0999 V2000
   21.9142   10.7365    1.9876 C   0  0  0  0  0  0  0  0  0  0  0  0
   21.7471   11.8928    0.9803 C   0  0  0  0  0  0  0  0  0  0  0  0
   20.2429   12.0152    0.6408 C   0  0  0  0  0  0  0  0  0  0  0  0
   22.5566   11.5670   -0.2754 C   0  0  0  0  0  0  0  0  0  0  0  0
   23.4928   12.2926   -0.7352 N   0  0  0  0  0  0  0  0  0  0  0  0
   24.1983   11.8648   -1.8350 O   0  0  0  0  0  0  0  0  0  0  0  0
   22.1790   10.4334   -0.9677 N   0  0  0  0  0  0  0  0  0  0  0  0
   21.3272   10.9575    2.8796 H   0  0  0  0  0  0  0  0  0  0  0  0
   22.9694   10.6478    2.2476 H   0  0  0  0  0  0  0  0  0  0  0  0
   21.5656    9.8105    1.5242 H   0  0  0  0  0  0  0  0  0  0  0  0
   22.0941   12.8220    1.4118 H   0  0  0  0  0  0  0  0  0  0  0  0
   19.8796   11.0634    0.2483 H   0  0  0  0  0  0  0  0  0  0  0  0
   20.1248   12.7955   -0.1120 H   0  0  0  0  0  0  0  0  0  0  0  0
   19.6978   12.2828    1.5465 H   0  0  0  0  0  0  0  0  0  0  0  0
   24.0740   10.8930   -1.8773 H   0  0  0  0  0  0  0  0  0  0  0  0
   22.2214   10.5928   -1.9824 H   0  0  0  0  0  0  0  0  0  0  0  0
   21.2785   10.0523   -0.6538 H   0  0  0  0  0  0  0  0  0  0  0  0
  1  2  1  0
  1  8  1  0
  1  9  1  0
  1 10  1  0
  2  3  1  0
  2  4  1  0
  2 11  1  0
  3 12  1  0
  3 13  1  0
  3 14  1  0
  4  5  2  0
  4  7  1  0
  5  6  1  0
  6 15  1  0
  7 16  1  0
  7 17  1  0
M  END
> <intraLJ>
7.547     

> <intraEL>
0.137     

> <intraDihe>
5.064     

> <interLJ>
0.000     

> <interEJ>
0.000     

> <gridLJ>
-2.559    

> <gridEL>
0.000     

> <totalE>
10.189    

> <LGFE>
-2.559  

> <LE>
-0.366  

> <SMILES>
CC(C)C(N)=NO

> <atom.dprop.GFE>
-0.29 -0.29 -0.24 0 -0.69 -0.51 -0.52 0 0 0 0 0 0 0 0 0 0

> <atom.prop.CLASS>
PRPC PRPC PRPC NCLA GENA MEOO GEND NCLA NCLA NCLA NCLA NCLA NCLA NCLA NCLA NCLA NCLA

$$$$
21_1
     RDKit          3D

 17 16  0  0  0  0  0  0  0  0999 V2000
   12.0252    5.1594  -42.9822 C   0  0  0  0  0  0  0  0  0  0  0  0
   10.5535    5.5608  -42.7529 C   0  0  0  0  0  0  0  0  0  0  0  0
    9.7503    5.1675  -44.0149 C   0  0  0  0  0  0  0  0  0  0  0  0
   10.4896    7.0714  -42.5243 C   0  0  0  0  0  0  0  0  0  0  0  0
   10.0205    7.6208  -41.4791 N   0  0  0  0  0  0  0  0  0  0  0  0
   10.0768    8.9889  -41.3542 O   0  0  0  0  0  0  0  0  0  0  0  0
   10.9215    7.8653  -43.5684 N   0  0  0  0  0  0  0  0  0  0  0  0
   12.0747    4.0846  -43.1598 H   0  0  0  0  0  0  0  0  0  0  0  0
   12.6017    5.4178  -42.0934 H   0  0  0  0  0  0  0  0  0  0  0  0
   12.4100    5.7047  -43.8472 H   0  0  0  0  0  0  0  0  0  0  0  0
   10.1501    5.0407  -41.8945 H   0  0  0  0  0  0  0  0  0  0  0  0
   10.1849    5.6550  -44.8898 H   0  0  0  0  0  0  0  0  0  0  0  0
    8.7195    5.4977  -43.8808 H   0  0  0  0  0  0  0  0  0  0  0  0
    9.7844    4.0838  -44.1309 H   0  0  0  0  0  0  0  0  0  0  0  0
   10.7867    9.2888  -41.9606 H   0  0  0  0  0  0  0  0  0  0  0  0
   10.3150    8.6880  -43.6781 H   0  0  0  0  0  0  0  0  0  0  0  0
   11.0576    7.3418  -44.4415 H   0  0  0  0  0  0  0  0  0  0  0  0
  1  2  1  0
  1  8  1  0
  1  9  1  0
  1 10  1  0
  2  3  1  0
  2  4  1  0
  2 11  1  0
  3 12  1  0
  3 13  1  0
  3 14  1  0
  4  5  2  0
  4  7  1  0
  5  6  1  0
  6 15  1  0
  7 16  1  0
  7 17  1  0
M  END
> <intraLJ>
7.547     

> <intraEL>
0.137     

> <intraDihe>
5.064     

> <interLJ>
0.000     

> <interEJ>
0.000     

> <gridLJ>
-2.505    

> <gridEL>
0.000     

> <totalE>
10.243    

> <LGFE>
-2.505  

> <LE>
-0.358  

> <SMILES>
CC(C)C(N)=NO

> <atom.dprop.GFE>
-0.37 0.062 0.26 0 -0.87 -0.87 -0.73 0 0 0 0 0 0 0 0 0 0

> <atom.prop.CLASS>
PRPC PRPC PRPC NCLA GENA MEOO GEND NCLA NCLA NCLA NCLA NCLA NCLA NCLA NCLA NCLA NCLA

$$$$
21_1
     RDKit          3D

 17 16  0  0  0  0  0  0  0  0999 V2000
    9.5207   15.2095  -10.5912 C   0  0  0  0  0  0  0  0  0  0  0  0
    9.9397   15.5694   -9.1509 C   0  0  0  0  0  0  0  0  0  0  0  0
    9.1663   16.8425   -8.7339 C   0  0  0  0  0  0  0  0  0  0  0  0
   11.4470   15.8255   -9.1306 C   0  0  0  0  0  0  0  0  0  0  0  0
   12.2751   15.1851   -8.4107 N   0  0  0  0  0  0  0  0  0  0  0  0
   13.6181   15.4562   -8.5256 O   0  0  0  0  0  0  0  0  0  0  0  0
   11.8989   16.8706   -9.9120 N   0  0  0  0  0  0  0  0  0  0  0  0
    8.4437   15.0396  -10.6138 H   0  0  0  0  0  0  0  0  0  0  0  0
   10.0478   14.3042  -10.8938 H   0  0  0  0  0  0  0  0  0  0  0  0
    9.7881   16.0355  -11.2543 H   0  0  0  0  0  0  0  0  0  0  0  0
    9.6937   14.7625   -8.4737 H   0  0  0  0  0  0  0  0  0  0  0  0
    9.3769   17.6453   -9.4432 H   0  0  0  0  0  0  0  0  0  0  0  0
    9.4986   17.1331   -7.7365 H   0  0  0  0  0  0  0  0  0  0  0  0
    8.0991   16.6189   -8.7229 H   0  0  0  0  0  0  0  0  0  0  0  0
   13.7373   15.8747   -9.4044 H   0  0  0  0  0  0  0  0  0  0  0  0
   12.6363   17.3980   -9.4275 H   0  0  0  0  0  0  0  0  0  0  0  0
   11.1398   17.4654  -10.2655 H   0  0  0  0  0  0  0  0  0  0  0  0
  1  2  1  0
  1  8  1  0
  1  9  1  0
  1 10  1  0
  2  3  1  0
  2  4  1  0
  2 11  1  0
  3 12  1  0
  3 13  1  0
  3 14  1  0
  4  5  2  0
  4  7  1  0
  5  6  1  0
  6 15  1  0
  7 16  1  0
  7 17  1  0
M  END
> <intraLJ>
7.547     

> <intraEL>
0.137     

> <intraDihe>
5.065     

> <interLJ>
0.000     

> <interEJ>
0.000     

> <gridLJ>
-2.462    

> <gridEL>
0.000     

> <totalE>
10.286    

> <LGFE>
-2.462  

> <LE>
-0.352  

> <SMILES>
CC(C)C(N)=NO

> <atom.dprop.GFE>
-0.3 -0.23 -0.24 0 -0.8 -0.64 -0.25 0 0 0 0 0 0 0 0 0 0

> <atom.prop.CLASS>
PRPC PRPC PRPC NCLA GENA MEOO GEND NCLA NCLA NCLA NCLA NCLA NCLA NCLA NCLA NCLA NCLA

$$$$
21_1
     RDKit          3D

 17 16  0  0  0  0  0  0  0  0999 V2000
  -27.3886   12.5623   19.1014 C   0  0  0  0  0  0  0  0  0  0  0  0
  -27.3519   14.0301   18.6282 C   0  0  0  0  0  0  0  0  0  0  0  0
  -27.2455   14.9319   19.8805 C   0  0  0  0  0  0  0  0  0  0  0  0
  -28.6400   14.3275   17.8597 C   0  0  0  0  0  0  0  0  0  0  0  0
  -28.6818   14.7219   16.6527 N   0  0  0  0  0  0  0  0  0  0  0  0
  -29.9017   14.8927   16.0418 O   0  0  0  0  0  0  0  0  0  0  0  0
  -29.8168   14.2092   18.5724 N   0  0  0  0  0  0  0  0  0  0  0  0
  -26.4781   12.3492   19.6625 H   0  0  0  0  0  0  0  0  0  0  0  0
  -27.4489   11.9135   18.2272 H   0  0  0  0  0  0  0  0  0  0  0  0
  -28.2669   12.4167   19.7347 H   0  0  0  0  0  0  0  0  0  0  0  0
  -26.4947   14.1994   17.9905 H   0  0  0  0  0  0  0  0  0  0  0  0
  -28.0855   14.7289   20.5478 H   0  0  0  0  0  0  0  0  0  0  0  0
  -27.2738   15.9727   19.5557 H   0  0  0  0  0  0  0  0  0  0  0  0
  -26.3025   14.7227   20.3864 H   0  0  0  0  0  0  0  0  0  0  0  0
  -30.5397   14.3490   16.5507 H   0  0  0  0  0  0  0  0  0  0  0  0
  -30.4714   14.9625   18.3262 H   0  0  0  0  0  0  0  0  0  0  0  0
  -29.6662   14.1167   19.5841 H   0  0  0  0  0  0  0  0  0  0  0  0
  1  2  1  0
  1  8  1  0
  1  9  1  0
  1 10  1  0
  2  3  1  0
  2  4  1  0
  2 11  1  0
  3 12  1  0
  3 13  1  0
  3 14  1  0
  4  5  2  0
  4  7  1  0
  5  6  1  0
  6 15  1  0
  7 16  1  0
  7 17  1  0
M  END
> <intraLJ>
7.547     

> <intraEL>
0.137     

> <intraDihe>
5.064     

> <interLJ>
0.000     

> <interEJ>
0.000     

> <gridLJ>
-2.462    

> <gridEL>
0.000     

> <totalE>
10.286    

> <LGFE>
-2.462  

> <LE>
-0.352  

> <SMILES>
CC(C)C(N)=NO

> <atom.dprop.GFE>
-0.29 -0.48 -0.33 0 -0.56 -0.3 -0.5 0 0 0 0 0 0 0 0 0 0

> <atom.prop.CLASS>
PRPC PRPC PRPC NCLA GENA MEOO GEND NCLA NCLA NCLA NCLA NCLA NCLA NCLA NCLA NCLA NCLA

$$$$
21_1
     RDKit          3D

 17 16  0  0  0  0  0  0  0  0999 V2000
   -3.0786   11.4972    8.9045 C   0  0  0  0  0  0  0  0  0  0  0  0
   -4.4837   11.1346    8.3814 C   0  0  0  0  0  0  0  0  0  0  0  0
   -5.0971   10.0927    9.3463 C   0  0  0  0  0  0  0  0  0  0  0  0
   -4.3451   10.5490    6.9756 C   0  0  0  0  0  0  0  0  0  0  0  0
   -4.9035   11.0275    5.9396 N   0  0  0  0  0  0  0  0  0  0  0  0
   -4.6520   10.4565    4.7144 O   0  0  0  0  0  0  0  0  0  0  0  0
   -3.6071    9.3867    6.8690 N   0  0  0  0  0  0  0  0  0  0  0  0
   -3.1707   11.9024    9.9128 H   0  0  0  0  0  0  0  0  0  0  0  0
   -2.6392   12.2429    8.2413 H   0  0  0  0  0  0  0  0  0  0  0  0
   -2.4609   10.5961    8.9131 H   0  0  0  0  0  0  0  0  0  0  0  0
   -5.1144   12.0130    8.3542 H   0  0  0  0  0  0  0  0  0  0  0  0
   -4.4384    9.2244    9.4110 H   0  0  0  0  0  0  0  0  0  0  0  0
   -6.0686    9.7920    8.9521 H   0  0  0  0  0  0  0  0  0  0  0  0
   -5.2166   10.5499   10.3289 H   0  0  0  0  0  0  0  0  0  0  0  0
   -3.8041    9.9728    4.8081 H   0  0  0  0  0  0  0  0  0  0  0  0
   -4.0431    8.7359    6.2033 H   0  0  0  0  0  0  0  0  0  0  0  0
   -3.3991    8.9580    7.7788 H   0  0  0  0  0  0  0  0  0  0  0  0
  1  2  1  0
  1  8  1  0
  1  9  1  0
  1 10  1  0
  2  3  1  0
  2  4  1  0
  2 11  1  0
  3 12  1  0
  3 13  1  0
  3 14  1  0
  4  5  2  0
  4  7  1  0
  5  6  1  0
  6 15  1  0
  7 16  1  0
  7 17  1  0
M  END
> <intraLJ>
7.547     

> <intraEL>
0.137     

> <intraDihe>
5.065     

> <interLJ>
0.000     

> <interEJ>
0.000     

> <gridLJ>
-2.505    

> <gridEL>
0.000     

> <totalE>
10.243    

> <LGFE>
-2.505  

> <LE>
-0.358  

> <SMILES>
CC(C)C(N)=NO

> <atom.dprop.GFE>
-0.19 -0.024 -0.12 0 -1.1 -0.89 -0.13 0 0 0 0 0 0 0 0 0 0

> <atom.prop.CLASS>
PRPC PRPC PRPC NCLA GENA MEOO GEND NCLA NCLA NCLA NCLA NCLA NCLA NCLA NCLA NCLA NCLA

$$$$
21_1
     RDKit          3D

 17 16  0  0  0  0  0  0  0  0999 V2000
   19.3223    5.2984  -51.3283 C   0  0  0  0  0  0  0  0  0  0  0  0
   18.3751    4.4939  -50.4145 C   0  0  0  0  0  0  0  0  0  0  0  0
   17.6542    5.4924  -49.4785 C   0  0  0  0  0  0  0  0  0  0  0  0
   19.2072    3.5008  -49.6023 C   0  0  0  0  0  0  0  0  0  0  0  0
   19.0452    2.2409  -49.6240 N   0  0  0  0  0  0  0  0  0  0  0  0
   19.8987    1.4396  -48.9030 O   0  0  0  0  0  0  0  0  0  0  0  0
   20.1483    4.0459  -48.7513 N   0  0  0  0  0  0  0  0  0  0  0  0
   18.7352    6.0182  -51.8997 H   0  0  0  0  0  0  0  0  0  0  0  0
   19.8273    4.6080  -52.0046 H   0  0  0  0  0  0  0  0  0  0  0  0
   20.0573    5.8163  -50.7076 H   0  0  0  0  0  0  0  0  0  0  0  0
   17.6413    3.9630  -51.0058 H   0  0  0  0  0  0  0  0  0  0  0  0
   18.3950    6.0624  -48.9142 H   0  0  0  0  0  0  0  0  0  0  0  0
   17.0235    4.9245  -48.7935 H   0  0  0  0  0  0  0  0  0  0  0  0
   17.0423    6.1629  -50.0826 H   0  0  0  0  0  0  0  0  0  0  0  0
   20.7108    1.9692  -48.7563 H   0  0  0  0  0  0  0  0  0  0  0  0
   20.1772    3.5333  -47.8607 H   0  0  0  0  0  0  0  0  0  0  0  0
   20.0427    5.0606  -48.6325 H   0  0  0  0  0  0  0  0  0  0  0  0
  1  2  1  0
  1  8  1  0
  1  9  1  0
  1 10  1  0
  2  3  1  0
  2  4  1  0
  2 11  1  0
  3 12  1  0
  3 13  1  0
  3 14  1  0
  4  5  2  0
  4  7  1  0
  5  6  1  0
  6 15  1  0
  7 16  1  0
  7 17  1  0
M  END
> <intraLJ>
7.547     

> <intraEL>
0.137     

> <intraDihe>
5.064     

> <interLJ>
0.000     

> <interEJ>
0.000     

> <gridLJ>
-2.440    

> <gridEL>
0.000     

> <totalE>
10.308    

> <LGFE>
-2.440  

> <LE>
-0.349  

> <SMILES>
CC(C)C(N)=NO

> <atom.dprop.GFE>
-0.29 -0.38 -0.31 0 -0.61 -0.23 -0.62 0 0 0 0 0 0 0 0 0 0

> <atom.prop.CLASS>
PRPC PRPC PRPC NCLA GENA MEOO GEND NCLA NCLA NCLA NCLA NCLA NCLA NCLA NCLA NCLA NCLA

$$$$
21_1
     RDKit          3D

 17 16  0  0  0  0  0  0  0  0999 V2000
    4.8213    4.5087  -42.5991 C   0  0  0  0  0  0  0  0  0  0  0  0
    3.9053    4.9556  -41.4412 C   0  0  0  0  0  0  0  0  0  0  0  0
    4.6309    6.0813  -40.6671 C   0  0  0  0  0  0  0  0  0  0  0  0
    3.6499    3.7548  -40.5295 C   0  0  0  0  0  0  0  0  0  0  0  0
    2.4989    3.2901  -40.2588 N   0  0  0  0  0  0  0  0  0  0  0  0
    2.3941    2.1622  -39.4796 O   0  0  0  0  0  0  0  0  0  0  0  0
    4.7612    3.1992  -39.9267 N   0  0  0  0  0  0  0  0  0  0  0  0
    5.0180    5.3653  -43.2447 H   0  0  0  0  0  0  0  0  0  0  0  0
    4.3158    3.7244  -43.1633 H   0  0  0  0  0  0  0  0  0  0  0  0
    5.7558    4.1250  -42.1831 H   0  0  0  0  0  0  0  0  0  0  0  0
    2.9672    5.3323  -41.8261 H   0  0  0  0  0  0  0  0  0  0  0  0
    5.5990    5.7172  -40.3174 H   0  0  0  0  0  0  0  0  0  0  0  0
    4.0118    6.3641  -39.8148 H   0  0  0  0  0  0  0  0  0  0  0  0
    4.7664    6.9352  -41.3315 H   0  0  0  0  0  0  0  0  0  0  0  0
    3.2601    1.7065  -39.5422 H   0  0  0  0  0  0  0  0  0  0  0  0
    4.5565    2.9343  -38.9548 H   0  0  0  0  0  0  0  0  0  0  0  0
    5.6022    3.7812  -40.0204 H   0  0  0  0  0  0  0  0  0  0  0  0
  1  2  1  0
  1  8  1  0
  1  9  1  0
  1 10  1  0
  2  3  1  0
  2  4  1  0
  2 11  1  0
  3 12  1  0
  3 13  1  0
  3 14  1  0
  4  5  2  0
  4  7  1  0
  5  6  1  0
  6 15  1  0
  7 16  1  0
  7 17  1  0
M  END
> <intraLJ>
7.547     

> <intraEL>
0.136     

> <intraDihe>
5.065     

> <interLJ>
0.000     

> <interEJ>
0.000     

> <gridLJ>
-2.434    

> <gridEL>
0.000     

> <totalE>
10.315    

> <LGFE>
-2.434  

> <LE>
-0.348  

> <SMILES>
CC(C)C(N)=NO

> <atom.dprop.GFE>
-0.13 -0.32 0.036 0 -0.74 -0.36 -0.92 0 0 0 0 0 0 0 0 0 0

> <atom.prop.CLASS>
PRPC PRPC PRPC NCLA GENA MEOO GEND NCLA NCLA NCLA NCLA NCLA NCLA NCLA NCLA NCLA NCLA

$$$$
21_1
     RDKit          3D

 17 16  0  0  0  0  0  0  0  0999 V2000
  -33.9159   -4.8796   19.5705 C   0  0  0  0  0  0  0  0  0  0  0  0
  -33.1233   -6.1591   19.9086 C   0  0  0  0  0  0  0  0  0  0  0  0
  -32.2301   -5.8561   21.1346 C   0  0  0  0  0  0  0  0  0  0  0  0
  -32.2666   -6.5363   18.6995 C   0  0  0  0  0  0  0  0  0  0  0  0
  -32.3380   -7.6469   18.0866 N   0  0  0  0  0  0  0  0  0  0  0  0
  -31.5646   -7.8499   16.9680 O   0  0  0  0  0  0  0  0  0  0  0  0
  -31.3186   -5.6104   18.3108 N   0  0  0  0  0  0  0  0  0  0  0  0
  -34.5181   -4.5983   20.4350 H   0  0  0  0  0  0  0  0  0  0  0  0
  -34.5619   -5.0828   18.7158 H   0  0  0  0  0  0  0  0  0  0  0  0
  -33.2114   -4.0819   19.3235 H   0  0  0  0  0  0  0  0  0  0  0  0
  -33.7991   -6.9690   20.1486 H   0  0  0  0  0  0  0  0  0  0  0  0
  -31.5794   -5.0086   20.9104 H   0  0  0  0  0  0  0  0  0  0  0  0
  -31.6272   -6.7403   21.3451 H   0  0  0  0  0  0  0  0  0  0  0  0
  -32.8688   -5.6263   21.9879 H   0  0  0  0  0  0  0  0  0  0  0  0
  -31.3299   -6.9584   16.6338 H   0  0  0  0  0  0  0  0  0  0  0  0
  -30.4437   -6.0752   18.0366 H   0  0  0  0  0  0  0  0  0  0  0  0
  -31.1818   -4.8617   19.0004 H   0  0  0  0  0  0  0  0  0  0  0  0
  1  2  1  0
  1  8  1  0
  1  9  1  0
  1 10  1  0
  2  3  1  0
  2  4  1  0
  2 11  1  0
  3 12  1  0
  3 13  1  0
  3 14  1  0
  4  5  2  0
  4  7  1  0
  5  6  1  0
  6 15  1  0
  7 16  1  0
  7 17  1  0
M  END
> <intraLJ>
7.547     

> <intraEL>
0.137     

> <intraDihe>
5.065     

> <interLJ>
0.000     

> <interEJ>
0.000     

> <gridLJ>
-2.434    

> <gridEL>
0.000     

> <totalE>
10.314    

> <LGFE>
-2.434  

> <LE>
-0.348  

> <SMILES>
CC(C)C(N)=NO

> <atom.dprop.GFE>
-0.18 -0.26 -0.19 0 -0.39 -0.6 -0.8 0 0 0 0 0 0 0 0 0 0

> <atom.prop.CLASS>
PRPC PRPC PRPC NCLA GENA MEOO GEND NCLA NCLA NCLA NCLA NCLA NCLA NCLA NCLA NCLA NCLA

$$$$
21_1
     RDKit          3D

 17 16  0  0  0  0  0  0  0  0999 V2000
   16.0940   -6.8163  -24.6247 C   0  0  0  0  0  0  0  0  0  0  0  0
   16.5982   -5.4403  -24.1430 C   0  0  0  0  0  0  0  0  0  0  0  0
   17.6881   -4.9601  -25.1301 C   0  0  0  0  0  0  0  0  0  0  0  0
   17.1783   -5.5979  -22.7370 C   0  0  0  0  0  0  0  0  0  0  0  0
   16.7654   -4.9670  -21.7144 N   0  0  0  0  0  0  0  0  0  0  0  0
   17.3185   -5.2402  -20.4857 O   0  0  0  0  0  0  0  0  0  0  0  0
   18.2629   -6.4441  -22.6158 N   0  0  0  0  0  0  0  0  0  0  0  0
   15.6919   -6.7121  -25.6331 H   0  0  0  0  0  0  0  0  0  0  0  0
   15.3137   -7.1612  -23.9456 H   0  0  0  0  0  0  0  0  0  0  0  0
   16.9293   -7.5204  -24.6206 H   0  0  0  0  0  0  0  0  0  0  0  0
   15.7868   -4.7251  -24.1290 H   0  0  0  0  0  0  0  0  0  0  0  0
   18.4863   -5.7032  -25.1809 H   0  0  0  0  0  0  0  0  0  0  0  0
   18.0867   -4.0128  -24.7648 H   0  0  0  0  0  0  0  0  0  0  0  0
   17.2372   -4.8226  -26.1133 H   0  0  0  0  0  0  0  0  0  0  0  0
   17.7153   -6.1340  -20.5583 H   0  0  0  0  0  0  0  0  0  0  0  0
   18.9587   -6.0567  -21.9659 H   0  0  0  0  0  0  0  0  0  0  0  0
   18.6618   -6.7182  -23.5217 H   0  0  0  0  0  0  0  0  0  0  0  0
  1  2  1  0
  1  8  1  0
  1  9  1  0
  1 10  1  0
  2  3  1  0
  2  4  1  0
  2 11  1  0
  3 12  1  0
  3 13  1  0
  3 14  1  0
  4  5  2  0
  4  7  1  0
  5  6  1  0
  6 15  1  0
  7 16  1  0
  7 17  1  0
M  END
> <intraLJ>
7.547     

> <intraEL>
0.137     

> <intraDihe>
5.064     

> <interLJ>
0.000     

> <interEJ>
0.000     

> <gridLJ>
-2.372    

> <gridEL>
0.000     

> <totalE>
10.375    

> <LGFE>
-2.372  

> <LE>
-0.339  

> <SMILES>
CC(C)C(N)=NO

> <atom.dprop.GFE>
-0.35 -0.43 -0.4 0 -0.37 -0.44 -0.38 0 0 0 0 0 0 0 0 0 0

> <atom.prop.CLASS>
PRPC PRPC PRPC NCLA GENA MEOO GEND NCLA NCLA NCLA NCLA NCLA NCLA NCLA NCLA NCLA NCLA

$$$$
21_1
     RDKit          3D

 17 16  0  0  0  0  0  0  0  0999 V2000
   24.9898    9.0982  -40.8738 C   0  0  0  0  0  0  0  0  0  0  0  0
   25.1086    9.8129  -42.2356 C   0  0  0  0  0  0  0  0  0  0  0  0
   26.6050   10.1135  -42.4869 C   0  0  0  0  0  0  0  0  0  0  0  0
   24.3021   11.1108  -42.1777 C   0  0  0  0  0  0  0  0  0  0  0  0
   23.3362   11.3918  -42.9537 N   0  0  0  0  0  0  0  0  0  0  0  0
   22.6386   12.5615  -42.7645 O   0  0  0  0  0  0  0  0  0  0  0  0
   24.7161   12.0454  -41.2491 N   0  0  0  0  0  0  0  0  0  0  0  0
   25.5750    8.1785  -40.9052 H   0  0  0  0  0  0  0  0  0  0  0  0
   23.9403    8.8666  -40.6897 H   0  0  0  0  0  0  0  0  0  0  0  0
   25.3676    9.7614  -40.0920 H   0  0  0  0  0  0  0  0  0  0  0  0
   24.7320    9.1800  -43.0278 H   0  0  0  0  0  0  0  0  0  0  0  0
   26.9990   10.7136  -41.6643 H   0  0  0  0  0  0  0  0  0  0  0  0
   26.6900   10.6670  -43.4228 H   0  0  0  0  0  0  0  0  0  0  0  0
   27.1468    9.1700  -42.5590 H   0  0  0  0  0  0  0  0  0  0  0  0
   22.7985   12.8265  -41.8341 H   0  0  0  0  0  0  0  0  0  0  0  0
   24.6601   12.9960  -41.6364 H   0  0  0  0  0  0  0  0  0  0  0  0
   25.6325   11.8269  -40.8403 H   0  0  0  0  0  0  0  0  0  0  0  0
  1  2  1  0
  1  8  1  0
  1  9  1  0
  1 10  1  0
  2  3  1  0
  2  4  1  0
  2 11  1  0
  3 12  1  0
  3 13  1  0
  3 14  1  0
  4  5  2  0
  4  7  1  0
  5  6  1  0
  6 15  1  0
  7 16  1  0
  7 17  1  0
M  END
> <intraLJ>
7.547     

> <intraEL>
0.137     

> <intraDihe>
5.064     

> <interLJ>
0.000     

> <interEJ>
0.000     

> <gridLJ>
-2.361    

> <gridEL>
0.000     

> <totalE>
10.387    

> <LGFE>
-2.361  

> <LE>
-0.337  

> <SMILES>
CC(C)C(N)=NO

> <atom.dprop.GFE>
-0.24 -0.23 -0.17 0 -0.57 -0.85 -0.3 0 0 0 0 0 0 0 0 0 0

> <atom.prop.CLASS>
PRPC PRPC PRPC NCLA GENA MEOO GEND NCLA NCLA NCLA NCLA NCLA NCLA NCLA NCLA NCLA NCLA

$$$$
21_1
     RDKit          3D

 17 16  0  0  0  0  0  0  0  0999 V2000
   21.1775   10.5716    3.2757 C   0  0  0  0  0  0  0  0  0  0  0  0
   20.8918   12.0019    2.7734 C   0  0  0  0  0  0  0  0  0  0  0  0
   19.3574   12.1896    2.7177 C   0  0  0  0  0  0  0  0  0  0  0  0
   21.5037   12.1616    1.3812 C   0  0  0  0  0  0  0  0  0  0  0  0
   22.3757   13.0335    1.0752 N   0  0  0  0  0  0  0  0  0  0  0  0
   22.9055   13.0398   -0.1935 O   0  0  0  0  0  0  0  0  0  0  0  0
   21.0089   11.3276    0.3980 N   0  0  0  0  0  0  0  0  0  0  0  0
   20.7308   10.4480    4.2628 H   0  0  0  0  0  0  0  0  0  0  0  0
   22.2570   10.4296    3.3340 H   0  0  0  0  0  0  0  0  0  0  0  0
   20.7452    9.8565    2.5718 H   0  0  0  0  0  0  0  0  0  0  0  0
   21.3180   12.7311    3.4492 H   0  0  0  0  0  0  0  0  0  0  0  0
   18.9202   11.4251    2.0724 H   0  0  0  0  0  0  0  0  0  0  0  0
   19.1487   13.1803    2.3119 H   0  0  0  0  0  0  0  0  0  0  0  0
   18.9552   12.1061    3.7278 H   0  0  0  0  0  0  0  0  0  0  0  0
   22.7590   12.1398   -0.5544 H   0  0  0  0  0  0  0  0  0  0  0  0
   20.9058   11.8316   -0.4920 H   0  0  0  0  0  0  0  0  0  0  0  0
   20.1571   10.8304    0.6841 H   0  0  0  0  0  0  0  0  0  0  0  0
  1  2  1  0
  1  8  1  0
  1  9  1  0
  1 10  1  0
  2  3  1  0
  2  4  1  0
  2 11  1  0
  3 12  1  0
  3 13  1  0
  3 14  1  0
  4  5  2  0
  4  7  1  0
  5  6  1  0
  6 15  1  0
  7 16  1  0
  7 17  1  0
M  END
> <intraLJ>
7.547     

> <intraEL>
0.137     

> <intraDihe>
5.064     

> <interLJ>
0.000     

> <interEJ>
0.000     

> <gridLJ>
-2.319    

> <gridEL>
0.000     

> <totalE>
10.429    

> <LGFE>
-2.319  

> <LE>
-0.331  

> <SMILES>
CC(C)C(N)=NO

> <atom.dprop.GFE>
-0.25 -0.28 -0.22 0 -0.51 -0.48 -0.59 0 0 0 0 0 0 0 0 0 0

> <atom.prop.CLASS>
PRPC PRPC PRPC NCLA GENA MEOO GEND NCLA NCLA NCLA NCLA NCLA NCLA NCLA NCLA NCLA NCLA

$$$$
21_1
     RDKit          3D

 17 16  0  0  0  0  0  0  0  0999 V2000
   10.5268   -8.2524  -28.0935 C   0  0  0  0  0  0  0  0  0  0  0  0
   10.2140   -9.7043  -28.5105 C   0  0  0  0  0  0  0  0  0  0  0  0
   10.9864  -10.6497  -27.5606 C   0  0  0  0  0  0  0  0  0  0  0  0
   10.6694   -9.9057  -29.9563 C   0  0  0  0  0  0  0  0  0  0  0  0
    9.9054  -10.2600  -30.9076 N   0  0  0  0  0  0  0  0  0  0  0  0
   10.4122  -10.3437  -32.1830 O   0  0  0  0  0  0  0  0  0  0  0  0
   12.0192   -9.7439  -30.1990 N   0  0  0  0  0  0  0  0  0  0  0  0
   10.2167   -8.1077  -27.0580 H   0  0  0  0  0  0  0  0  0  0  0  0
    9.9767   -7.5739  -28.7462 H   0  0  0  0  0  0  0  0  0  0  0  0
   11.6006   -8.0786  -28.1954 H   0  0  0  0  0  0  0  0  0  0  0  0
    9.1535   -9.9005  -28.4274 H   0  0  0  0  0  0  0  0  0  0  0  0
   12.0531  -10.4219  -27.6082 H   0  0  0  0  0  0  0  0  0  0  0  0
   10.8123  -11.6766  -27.8843 H   0  0  0  0  0  0  0  0  0  0  0  0
   10.6154  -10.5090  -26.5449 H   0  0  0  0  0  0  0  0  0  0  0  0
   11.2153   -9.7812  -32.1944 H   0  0  0  0  0  0  0  0  0  0  0  0
   12.3594  -10.4517  -30.8622 H   0  0  0  0  0  0  0  0  0  0  0  0
   12.5785   -9.6911  -29.3392 H   0  0  0  0  0  0  0  0  0  0  0  0
  1  2  1  0
  1  8  1  0
  1  9  1  0
  1 10  1  0
  2  3  1  0
  2  4  1  0
  2 11  1  0
  3 12  1  0
  3 13  1  0
  3 14  1  0
  4  5  2  0
  4  7  1  0
  5  6  1  0
  6 15  1  0
  7 16  1  0
  7 17  1  0
M  END
> <intraLJ>
7.547     

> <intraEL>
0.137     

> <intraDihe>
5.064     

> <interLJ>
0.000     

> <interEJ>
0.000     

> <gridLJ>
-2.318    

> <gridEL>
0.000     

> <totalE>
10.430    

> <LGFE>
-2.318  

> <LE>
-0.331  

> <SMILES>
CC(C)C(N)=NO

> <atom.dprop.GFE>
-0.26 -0.39 -0.31 0 -0.63 -0.45 -0.28 0 0 0 0 0 0 0 0 0 0

> <atom.prop.CLASS>
PRPC PRPC PRPC NCLA GENA MEOO GEND NCLA NCLA NCLA NCLA NCLA NCLA NCLA NCLA NCLA NCLA

$$$$
21_1
     RDKit          3D

 17 16  0  0  0  0  0  0  0  0999 V2000
  -22.1609  -15.6135   24.0600 C   0  0  0  0  0  0  0  0  0  0  0  0
  -23.1107  -16.5764   23.3182 C   0  0  0  0  0  0  0  0  0  0  0  0
  -22.2447  -17.5734   22.5128 C   0  0  0  0  0  0  0  0  0  0  0  0
  -24.0005  -15.7587   22.3812 C   0  0  0  0  0  0  0  0  0  0  0  0
  -25.2698  -15.7363   22.4333 N   0  0  0  0  0  0  0  0  0  0  0  0
  -25.9644  -14.9097   21.5821 O   0  0  0  0  0  0  0  0  0  0  0  0
  -23.3533  -15.0568   21.3835 N   0  0  0  0  0  0  0  0  0  0  0  0
  -21.5142  -16.1935   24.7194 H   0  0  0  0  0  0  0  0  0  0  0  0
  -22.7580  -14.9130   24.6445 H   0  0  0  0  0  0  0  0  0  0  0  0
  -21.5629  -15.0701   23.3246 H   0  0  0  0  0  0  0  0  0  0  0  0
  -23.7221  -17.1217   24.0245 H   0  0  0  0  0  0  0  0  0  0  0  0
  -21.5930  -17.0223   21.8319 H   0  0  0  0  0  0  0  0  0  0  0  0
  -22.9110  -18.2226   21.9434 H   0  0  0  0  0  0  0  0  0  0  0  0
  -21.6494  -18.1653   23.2086 H   0  0  0  0  0  0  0  0  0  0  0  0
  -25.3318  -14.2153   21.3003 H   0  0  0  0  0  0  0  0  0  0  0  0
  -23.8802  -15.1035   20.5020 H   0  0  0  0  0  0  0  0  0  0  0  0
  -22.3664  -15.3219   21.2811 H   0  0  0  0  0  0  0  0  0  0  0  0
  1  2  1  0
  1  8  1  0
  1  9  1  0
  1 10  1  0
  2  3  1  0
  2  4  1  0
  2 11  1  0
  3 12  1  0
  3 13  1  0
  3 14  1  0
  4  5  2  0
  4  7  1  0
  5  6  1  0
  6 15  1  0
  7 16  1  0
  7 17  1  0
M  END
> <intraLJ>
7.547     

> <intraEL>
0.137     

> <intraDihe>
5.064     

> <interLJ>
0.000     

> <interEJ>
0.000     

> <gridLJ>
-2.287    

> <gridEL>
0.000     

> <totalE>
10.461    

> <LGFE>
-2.287  

> <LE>
-0.327  

> <SMILES>
CC(C)C(N)=NO

> <atom.dprop.GFE>
-0.16 -0.23 -0.14 0 -0.56 -0.49 -0.72 0 0 0 0 0 0 0 0 0 0

> <atom.prop.CLASS>
PRPC PRPC PRPC NCLA GENA MEOO GEND NCLA NCLA NCLA NCLA NCLA NCLA NCLA NCLA NCLA NCLA

$$$$
21_1
     RDKit          3D

 17 16  0  0  0  0  0  0  0  0999 V2000
  -25.9811    6.8334  -10.5951 C   0  0  0  0  0  0  0  0  0  0  0  0
  -25.3071    5.4886  -10.9370 C   0  0  0  0  0  0  0  0  0  0  0  0
  -26.2962    4.3550  -10.5773 C   0  0  0  0  0  0  0  0  0  0  0  0
  -24.0237    5.3629  -10.1152 C   0  0  0  0  0  0  0  0  0  0  0  0
  -22.8636    5.2168  -10.6121 N   0  0  0  0  0  0  0  0  0  0  0  0
  -21.7723    5.1832   -9.7765 O   0  0  0  0  0  0  0  0  0  0  0  0
  -24.1770    5.3490   -8.7428 N   0  0  0  0  0  0  0  0  0  0  0  0
  -26.9046    6.9216  -11.1684 H   0  0  0  0  0  0  0  0  0  0  0  0
  -25.3001    7.6436  -10.8574 H   0  0  0  0  0  0  0  0  0  0  0  0
  -26.1958    6.8593   -9.5242 H   0  0  0  0  0  0  0  0  0  0  0  0
  -25.0751    5.4406  -11.9924 H   0  0  0  0  0  0  0  0  0  0  0  0
  -26.5679    4.4299   -9.5225 H   0  0  0  0  0  0  0  0  0  0  0  0
  -25.8047    3.3998  -10.7661 H   0  0  0  0  0  0  0  0  0  0  0  0
  -27.1839    4.4499  -11.2034 H   0  0  0  0  0  0  0  0  0  0  0  0
  -22.0523    5.6212   -8.9450 H   0  0  0  0  0  0  0  0  0  0  0  0
  -23.5418    4.6663   -8.3103 H   0  0  0  0  0  0  0  0  0  0  0  0
  -25.1547    5.2370   -8.4489 H   0  0  0  0  0  0  0  0  0  0  0  0
  1  2  1  0
  1  8  1  0
  1  9  1  0
  1 10  1  0
  2  3  1  0
  2  4  1  0
  2 11  1  0
  3 12  1  0
  3 13  1  0
  3 14  1  0
  4  5  2  0
  4  7  1  0
  5  6  1  0
  6 15  1  0
  7 16  1  0
  7 17  1  0
M  END
> <intraLJ>
7.547     

> <intraEL>
0.137     

> <intraDihe>
5.064     

> <interLJ>
0.000     

> <interEJ>
0.000     

> <gridLJ>
-2.270    

> <gridEL>
0.000     

> <totalE>
10.478    

> <LGFE>
-2.270  

> <LE>
-0.324  

> <SMILES>
CC(C)C(N)=NO

> <atom.dprop.GFE>
-0.029 -0.043 -0.13 0 -0.73 -0.98 -0.36 0 0 0 0 0 0 0 0 0 0

> <atom.prop.CLASS>
PRPC PRPC PRPC NCLA GENA MEOO GEND NCLA NCLA NCLA NCLA NCLA NCLA NCLA NCLA NCLA NCLA

$$$$
21_1
     RDKit          3D

 17 16  0  0  0  0  0  0  0  0999 V2000
  -12.5054    0.8627  -20.7980 C   0  0  0  0  0  0  0  0  0  0  0  0
  -13.3197   -0.3480  -21.2986 C   0  0  0  0  0  0  0  0  0  0  0  0
  -12.6669   -0.8532  -22.6068 C   0  0  0  0  0  0  0  0  0  0  0  0
  -14.7579    0.1036  -21.5554 C   0  0  0  0  0  0  0  0  0  0  0  0
  -15.7784   -0.3841  -20.9766 N   0  0  0  0  0  0  0  0  0  0  0  0
  -17.0191    0.1481  -21.2371 O   0  0  0  0  0  0  0  0  0  0  0  0
  -14.9305    1.0644  -22.5321 N   0  0  0  0  0  0  0  0  0  0  0  0
  -11.4751    0.5490  -20.6268 H   0  0  0  0  0  0  0  0  0  0  0  0
  -12.9460    1.2209  -19.8672 H   0  0  0  0  0  0  0  0  0  0  0  0
  -12.5412    1.6503  -21.5544 H   0  0  0  0  0  0  0  0  0  0  0  0
  -13.3081   -1.1407  -20.5627 H   0  0  0  0  0  0  0  0  0  0  0  0
  -12.6354   -0.0407  -23.3354 H   0  0  0  0  0  0  0  0  0  0  0  0
  -13.2698   -1.6752  -22.9946 H   0  0  0  0  0  0  0  0  0  0  0  0
  -11.6574   -1.2010  -22.3855 H   0  0  0  0  0  0  0  0  0  0  0  0
  -16.8606    1.0526  -21.5813 H   0  0  0  0  0  0  0  0  0  0  0  0
  -15.7656    0.8657  -23.0977 H   0  0  0  0  0  0  0  0  0  0  0  0
  -14.0862    1.2207  -23.0956 H   0  0  0  0  0  0  0  0  0  0  0  0
  1  2  1  0
  1  8  1  0
  1  9  1  0
  1 10  1  0
  2  3  1  0
  2  4  1  0
  2 11  1  0
  3 12  1  0
  3 13  1  0
  3 14  1  0
  4  5  2  0
  4  7  1  0
  5  6  1  0
  6 15  1  0
  7 16  1  0
  7 17  1  0
M  END
> <intraLJ>
7.548     

> <intraEL>
0.138     

> <intraDihe>
5.064     

> <interLJ>
0.000     

> <interEJ>
0.000     

> <gridLJ>
-2.246    

> <gridEL>
0.000     

> <totalE>
10.504    

> <LGFE>
-2.246  

> <LE>
-0.321  

> <SMILES>
CC(C)C(N)=NO

> <atom.dprop.GFE>
-0.099 -0.026 -0.058 0 -1 -0.72 -0.35 0 0 0 0 0 0 0 0 0 0

> <atom.prop.CLASS>
PRPC PRPC PRPC NCLA GENA MEOO GEND NCLA NCLA NCLA NCLA NCLA NCLA NCLA NCLA NCLA NCLA

$$$$
21_1
     RDKit          3D

 17 16  0  0  0  0  0  0  0  0999 V2000
   19.4732   14.8669  -18.6757 C   0  0  0  0  0  0  0  0  0  0  0  0
   20.5996   14.0035  -19.2801 C   0  0  0  0  0  0  0  0  0  0  0  0
   20.0053   13.2066  -20.4653 C   0  0  0  0  0  0  0  0  0  0  0  0
   21.1192   13.0535  -18.2004 C   0  0  0  0  0  0  0  0  0  0  0  0
   22.3245   13.0101  -17.8009 N   0  0  0  0  0  0  0  0  0  0  0  0
   22.6636   12.1608  -16.7742 O   0  0  0  0  0  0  0  0  0  0  0  0
   20.2057   12.1528  -17.6893 N   0  0  0  0  0  0  0  0  0  0  0  0
   19.0894   15.5367  -19.4460 H   0  0  0  0  0  0  0  0  0  0  0  0
   19.8816   15.4461  -17.8470 H   0  0  0  0  0  0  0  0  0  0  0  0
   18.6786   14.2095  -18.3147 H   0  0  0  0  0  0  0  0  0  0  0  0
   21.4050   14.6308  -19.6377 H   0  0  0  0  0  0  0  0  0  0  0  0
   19.1622   12.6079  -20.1151 H   0  0  0  0  0  0  0  0  0  0  0  0
   20.7834   12.5537  -20.8626 H   0  0  0  0  0  0  0  0  0  0  0  0
   19.6771   13.9084  -21.2325 H   0  0  0  0  0  0  0  0  0  0  0  0
   21.8314   11.9710  -16.2916 H   0  0  0  0  0  0  0  0  0  0  0  0
   20.6405   11.2326  -17.5445 H   0  0  0  0  0  0  0  0  0  0  0  0
   19.3361   12.1098  -18.2339 H   0  0  0  0  0  0  0  0  0  0  0  0
  1  2  1  0
  1  8  1  0
  1  9  1  0
  1 10  1  0
  2  3  1  0
  2  4  1  0
  2 11  1  0
  3 12  1  0
  3 13  1  0
  3 14  1  0
  4  5  2  0
  4  7  1  0
  5  6  1  0
  6 15  1  0
  7 16  1  0
  7 17  1  0
M  END
> <intraLJ>
7.547     

> <intraEL>
0.137     

> <intraDihe>
5.065     

> <interLJ>
0.000     

> <interEJ>
0.000     

> <gridLJ>
-2.238    

> <gridEL>
0.000     

> <totalE>
10.509    

> <LGFE>
-2.238  

> <LE>
-0.320  

> <SMILES>
CC(C)C(N)=NO

> <atom.dprop.GFE>
-0.26 -0.37 -0.32 0 -0.6 -0.56 -0.13 0 0 0 0 0 0 0 0 0 0

> <atom.prop.CLASS>
PRPC PRPC PRPC NCLA GENA MEOO GEND NCLA NCLA NCLA NCLA NCLA NCLA NCLA NCLA NCLA NCLA

$$$$
21_1
     RDKit          3D

 17 16  0  0  0  0  0  0  0  0999 V2000
  -42.0663    3.8564   28.3225 C   0  0  0  0  0  0  0  0  0  0  0  0
  -40.6999    3.2332   28.6749 C   0  0  0  0  0  0  0  0  0  0  0  0
  -39.6187    4.3254   28.4991 C   0  0  0  0  0  0  0  0  0  0  0  0
  -40.4390    2.0614   27.7278 C   0  0  0  0  0  0  0  0  0  0  0  0
  -40.2282    0.8664   28.1042 N   0  0  0  0  0  0  0  0  0  0  0  0
  -40.0729   -0.1200   27.1591 O   0  0  0  0  0  0  0  0  0  0  0  0
  -40.3732    2.3670   26.3827 N   0  0  0  0  0  0  0  0  0  0  0  0
  -42.2508    4.7018   28.9862 H   0  0  0  0  0  0  0  0  0  0  0  0
  -42.8411    3.1009   28.4561 H   0  0  0  0  0  0  0  0  0  0  0  0
  -42.0457    4.1888   27.2819 H   0  0  0  0  0  0  0  0  0  0  0  0
  -40.6963    2.8868   29.6996 H   0  0  0  0  0  0  0  0  0  0  0  0
  -39.6518    4.7095   27.4776 H   0  0  0  0  0  0  0  0  0  0  0  0
  -38.6441    3.8763   28.6944 H   0  0  0  0  0  0  0  0  0  0  0  0
  -39.8104    5.1289   29.2108 H   0  0  0  0  0  0  0  0  0  0  0  0
  -40.4920    0.2191   26.3400 H   0  0  0  0  0  0  0  0  0  0  0  0
  -39.6249    1.8337   25.9221 H   0  0  0  0  0  0  0  0  0  0  0  0
  -40.3224    3.3768   26.2021 H   0  0  0  0  0  0  0  0  0  0  0  0
  1  2  1  0
  1  8  1  0
  1  9  1  0
  1 10  1  0
  2  3  1  0
  2  4  1  0
  2 11  1  0
  3 12  1  0
  3 13  1  0
  3 14  1  0
  4  5  2  0
  4  7  1  0
  5  6  1  0
  6 15  1  0
  7 16  1  0
  7 17  1  0
M  END
> <intraLJ>
7.547     

> <intraEL>
0.136     

> <intraDihe>
5.066     

> <interLJ>
0.000     

> <interEJ>
0.000     

> <gridLJ>
-2.207    

> <gridEL>
0.000     

> <totalE>
10.542    

> <LGFE>
-2.207  

> <LE>
-0.315  

> <SMILES>
CC(C)C(N)=NO

> <atom.dprop.GFE>
-0.22 -0.29 -0.41 0 -0.61 -0.44 -0.25 0 0 0 0 0 0 0 0 0 0

> <atom.prop.CLASS>
PRPC PRPC PRPC NCLA GENA MEOO GEND NCLA NCLA NCLA NCLA NCLA NCLA NCLA NCLA NCLA NCLA

$$$$
21_1
     RDKit          3D

 17 16  0  0  0  0  0  0  0  0999 V2000
   15.2949   -4.3760    5.2053 C   0  0  0  0  0  0  0  0  0  0  0  0
   13.9294   -4.2353    4.5016 C   0  0  0  0  0  0  0  0  0  0  0  0
   13.9668   -2.9498    3.6420 C   0  0  0  0  0  0  0  0  0  0  0  0
   12.8384   -4.1368    5.5685 C   0  0  0  0  0  0  0  0  0  0  0  0
   11.8597   -4.9404    5.6717 N   0  0  0  0  0  0  0  0  0  0  0  0
   10.9751   -4.7941    6.7141 O   0  0  0  0  0  0  0  0  0  0  0  0
   12.9169   -3.0552    6.4234 N   0  0  0  0  0  0  0  0  0  0  0  0
   16.0782   -4.4324    4.4486 H   0  0  0  0  0  0  0  0  0  0  0  0
   15.2884   -5.2871    5.8044 H   0  0  0  0  0  0  0  0  0  0  0  0
   15.4521   -3.5077    5.8496 H   0  0  0  0  0  0  0  0  0  0  0  0
   13.7445   -5.0885    3.8629 H   0  0  0  0  0  0  0  0  0  0  0  0
   14.1994   -2.0932    4.2778 H   0  0  0  0  0  0  0  0  0  0  0  0
   12.9858   -2.8158    3.1846 H   0  0  0  0  0  0  0  0  0  0  0  0
   14.7279   -3.0642    2.8696 H   0  0  0  0  0  0  0  0  0  0  0  0
   11.4502   -4.2859    7.4052 H   0  0  0  0  0  0  0  0  0  0  0  0
   11.9833   -2.6679    6.6107 H   0  0  0  0  0  0  0  0  0  0  0  0
   13.5956   -2.3484    6.1159 H   0  0  0  0  0  0  0  0  0  0  0  0
  1  2  1  0
  1  8  1  0
  1  9  1  0
  1 10  1  0
  2  3  1  0
  2  4  1  0
  2 11  1  0
  3 12  1  0
  3 13  1  0
  3 14  1  0
  4  5  2  0
  4  7  1  0
  5  6  1  0
  6 15  1  0
  7 16  1  0
  7 17  1  0
M  END
> <intraLJ>
7.547     

> <intraEL>
0.137     

> <intraDihe>
5.064     

> <interLJ>
0.000     

> <interEJ>
0.000     

> <gridLJ>
-2.188    

> <gridEL>
0.000     

> <totalE>
10.560    

> <LGFE>
-2.188  

> <LE>
-0.313  

> <SMILES>
CC(C)C(N)=NO

> <atom.dprop.GFE>
-0.15 -0.2 -0.17 0 -0.67 -0.55 -0.46 0 0 0 0 0 0 0 0 0 0

> <atom.prop.CLASS>
PRPC PRPC PRPC NCLA GENA MEOO GEND NCLA NCLA NCLA NCLA NCLA NCLA NCLA NCLA NCLA NCLA

$$$$
21_1
     RDKit          3D

 17 16  0  0  0  0  0  0  0  0999 V2000
   20.4912   13.9437  -19.5800 C   0  0  0  0  0  0  0  0  0  0  0  0
   19.4290   13.1934  -20.4097 C   0  0  0  0  0  0  0  0  0  0  0  0
   20.1470   12.5122  -21.5985 C   0  0  0  0  0  0  0  0  0  0  0  0
   18.3984   14.2050  -20.9125 C   0  0  0  0  0  0  0  0  0  0  0  0
   17.1550   14.1511  -20.6574 N   0  0  0  0  0  0  0  0  0  0  0  0
   16.3310   15.1556  -21.1074 O   0  0  0  0  0  0  0  0  0  0  0  0
   18.8738   15.1962  -21.7482 N   0  0  0  0  0  0  0  0  0  0  0  0
   21.2367   13.2284  -19.2307 H   0  0  0  0  0  0  0  0  0  0  0  0
   20.0011   14.4174  -18.7290 H   0  0  0  0  0  0  0  0  0  0  0  0
   20.9605   14.7032  -20.2098 H   0  0  0  0  0  0  0  0  0  0  0  0
   18.9417   12.4399  -19.8057 H   0  0  0  0  0  0  0  0  0  0  0  0
   20.6782   13.2658  -22.1833 H   0  0  0  0  0  0  0  0  0  0  0  0
   19.3938   12.0251  -22.2191 H   0  0  0  0  0  0  0  0  0  0  0  0
   20.8478   11.7727  -21.2101 H   0  0  0  0  0  0  0  0  0  0  0  0
   16.9094   15.9310  -21.2681 H   0  0  0  0  0  0  0  0  0  0  0  0
   18.2094   15.3827  -22.5101 H   0  0  0  0  0  0  0  0  0  0  0  0
   19.8303   15.0193  -22.0778 H   0  0  0  0  0  0  0  0  0  0  0  0
  1  2  1  0
  1  8  1  0
  1  9  1  0
  1 10  1  0
  2  3  1  0
  2  4  1  0
  2 11  1  0
  3 12  1  0
  3 13  1  0
  3 14  1  0
  4  5  2  0
  4  7  1  0
  5  6  1  0
  6 15  1  0
  7 16  1  0
  7 17  1  0
M  END
> <intraLJ>
7.547     

> <intraEL>
0.137     

> <intraDihe>
5.064     

> <interLJ>
0.000     

> <interEJ>
0.000     

> <gridLJ>
-2.157    

> <gridEL>
0.000     

> <totalE>
10.591    

> <LGFE>
-2.157  

> <LE>
-0.308  

> <SMILES>
CC(C)C(N)=NO

> <atom.dprop.GFE>
-0.37 -0.19 -0.14 0 -0.19 -0.92 -0.34 0 0 0 0 0 0 0 0 0 0

> <atom.prop.CLASS>
PRPC PRPC PRPC NCLA GENA MEOO GEND NCLA NCLA NCLA NCLA NCLA NCLA NCLA NCLA NCLA NCLA

$$$$
21_1
     RDKit          3D

 17 16  0  0  0  0  0  0  0  0999 V2000
    0.6442    6.4186  -20.9403 C   0  0  0  0  0  0  0  0  0  0  0  0
   -0.0538    6.9698  -22.2007 C   0  0  0  0  0  0  0  0  0  0  0  0
   -1.4453    6.3024  -22.3050 C   0  0  0  0  0  0  0  0  0  0  0  0
    0.8003    6.6256  -23.4215 C   0  0  0  0  0  0  0  0  0  0  0  0
    1.2809    7.4826  -24.2270 N   0  0  0  0  0  0  0  0  0  0  0  0
    2.0927    7.0610  -25.2534 O   0  0  0  0  0  0  0  0  0  0  0  0
    0.9920    5.2813  -23.6725 N   0  0  0  0  0  0  0  0  0  0  0  0
    0.0318    6.6493  -20.0679 H   0  0  0  0  0  0  0  0  0  0  0  0
    1.6220    6.8919  -20.8456 H   0  0  0  0  0  0  0  0  0  0  0  0
    0.7622    5.3376  -21.0454 H   0  0  0  0  0  0  0  0  0  0  0  0
   -0.1751    8.0421  -22.1262 H   0  0  0  0  0  0  0  0  0  0  0  0
   -1.3275    5.2173  -22.3334 H   0  0  0  0  0  0  0  0  0  0  0  0
   -1.9219    6.6473  -23.2235 H   0  0  0  0  0  0  0  0  0  0  0  0
   -2.0421    6.5947  -21.4406 H   0  0  0  0  0  0  0  0  0  0  0  0
    2.4390    6.1840  -24.9842 H   0  0  0  0  0  0  0  0  0  0  0  0
    0.9435    5.0864  -24.6807 H   0  0  0  0  0  0  0  0  0  0  0  0
    0.3794    4.6766  -23.1122 H   0  0  0  0  0  0  0  0  0  0  0  0
  1  2  1  0
  1  8  1  0
  1  9  1  0
  1 10  1  0
  2  3  1  0
  2  4  1  0
  2 11  1  0
  3 12  1  0
  3 13  1  0
  3 14  1  0
  4  5  2  0
  4  7  1  0
  5  6  1  0
  6 15  1  0
  7 16  1  0
  7 17  1  0
M  END
> <intraLJ>
7.547     

> <intraEL>
0.137     

> <intraDihe>
5.064     

> <interLJ>
0.000     

> <interEJ>
0.000     

> <gridLJ>
-2.133    

> <gridEL>
0.000     

> <totalE>
10.615    

> <LGFE>
-2.133  

> <LE>
-0.305  

> <SMILES>
CC(C)C(N)=NO

> <atom.dprop.GFE>
-0.24 -0.22 -0.084 0 -0.57 -0.42 -0.61 0 0 0 0 0 0 0 0 0 0

> <atom.prop.CLASS>
PRPC PRPC PRPC NCLA GENA MEOO GEND NCLA NCLA NCLA NCLA NCLA NCLA NCLA NCLA NCLA NCLA

$$$$
21_1
     RDKit          3D

 17 16  0  0  0  0  0  0  0  0999 V2000
   11.8617   16.3131   -0.9001 C   0  0  0  0  0  0  0  0  0  0  0  0
   10.3806   16.7347   -0.9906 C   0  0  0  0  0  0  0  0  0  0  0  0
   10.3045   18.0298   -1.8331 C   0  0  0  0  0  0  0  0  0  0  0  0
    9.8563   16.9824    0.4243 C   0  0  0  0  0  0  0  0  0  0  0  0
    8.8718   16.3696    0.9434 N   0  0  0  0  0  0  0  0  0  0  0  0
    8.5313   16.6273    2.2503 O   0  0  0  0  0  0  0  0  0  0  0  0
   10.4768   17.9892    1.1373 N   0  0  0  0  0  0  0  0  0  0  0  0
   12.2445   16.1489   -1.9080 H   0  0  0  0  0  0  0  0  0  0  0  0
   11.9293   15.3921   -0.3204 H   0  0  0  0  0  0  0  0  0  0  0  0
   12.4258   17.1071   -0.4051 H   0  0  0  0  0  0  0  0  0  0  0  0
    9.7967   15.9604   -1.4698 H   0  0  0  0  0  0  0  0  0  0  0  0
   10.9306   18.7987   -1.3761 H   0  0  0  0  0  0  0  0  0  0  0  0
    9.2661   18.3627   -1.8553 H   0  0  0  0  0  0  0  0  0  0  0  0
   10.6503   17.8133   -2.8443 H   0  0  0  0  0  0  0  0  0  0  0  0
    9.3322   17.0057    2.6709 H   0  0  0  0  0  0  0  0  0  0  0  0
    9.7905   18.5330    1.6758 H   0  0  0  0  0  0  0  0  0  0  0  0
   11.0917   18.5722    0.5570 H   0  0  0  0  0  0  0  0  0  0  0  0
  1  2  1  0
  1  8  1  0
  1  9  1  0
  1 10  1  0
  2  3  1  0
  2  4  1  0
  2 11  1  0
  3 12  1  0
  3 13  1  0
  3 14  1  0
  4  5  2  0
  4  7  1  0
  5  6  1  0
  6 15  1  0
  7 16  1  0
  7 17  1  0
M  END
> <intraLJ>
7.547     

> <intraEL>
0.137     

> <intraDihe>
5.064     

> <interLJ>
0.000     

> <interEJ>
0.000     

> <gridLJ>
-2.147    

> <gridEL>
0.000     

> <totalE>
10.600    

> <LGFE>
-2.147  

> <LE>
-0.307  

> <SMILES>
CC(C)C(N)=NO

> <atom.dprop.GFE>
-0.32 -0.33 -0.26 0 -0.6 -0.38 -0.25 0 0 0 0 0 0 0 0 0 0

> <atom.prop.CLASS>
PRPC PRPC PRPC NCLA GENA MEOO GEND NCLA NCLA NCLA NCLA NCLA NCLA NCLA NCLA NCLA NCLA

$$$$
21_1
     RDKit          3D

 17 16  0  0  0  0  0  0  0  0999 V2000
  -25.4222   -8.3639   27.0891 C   0  0  0  0  0  0  0  0  0  0  0  0
  -24.8796   -9.0315   28.3695 C   0  0  0  0  0  0  0  0  0  0  0  0
  -26.0752   -9.2862   29.3174 C   0  0  0  0  0  0  0  0  0  0  0  0
  -23.8686   -8.0873   29.0214 C   0  0  0  0  0  0  0  0  0  0  0  0
  -22.6548   -8.3829   29.2527 N   0  0  0  0  0  0  0  0  0  0  0  0
  -21.8184   -7.4286   29.7821 O   0  0  0  0  0  0  0  0  0  0  0  0
  -24.3547   -6.8612   29.4305 N   0  0  0  0  0  0  0  0  0  0  0  0
  -26.1545   -9.0275   26.6279 H   0  0  0  0  0  0  0  0  0  0  0  0
  -24.5913   -8.1914   26.4045 H   0  0  0  0  0  0  0  0  0  0  0  0
  -25.8883   -7.4125   27.3565 H   0  0  0  0  0  0  0  0  0  0  0  0
  -24.4039   -9.9733   28.1313 H   0  0  0  0  0  0  0  0  0  0  0  0
  -26.5850   -8.3427   29.5221 H   0  0  0  0  0  0  0  0  0  0  0  0
  -25.6908   -9.7085   30.2466 H   0  0  0  0  0  0  0  0  0  0  0  0
  -26.7591   -9.9892   28.8410 H   0  0  0  0  0  0  0  0  0  0  0  0
  -22.2290   -6.5622   29.5765 H   0  0  0  0  0  0  0  0  0  0  0  0
  -23.9487   -6.5896   30.3349 H   0  0  0  0  0  0  0  0  0  0  0  0
  -25.3803   -6.8098   29.4140 H   0  0  0  0  0  0  0  0  0  0  0  0
  1  2  1  0
  1  8  1  0
  1  9  1  0
  1 10  1  0
  2  3  1  0
  2  4  1  0
  2 11  1  0
  3 12  1  0
  3 13  1  0
  3 14  1  0
  4  5  2  0
  4  7  1  0
  5  6  1  0
  6 15  1  0
  7 16  1  0
  7 17  1  0
M  END
> <intraLJ>
7.547     

> <intraEL>
0.137     

> <intraDihe>
5.064     

> <interLJ>
0.000     

> <interEJ>
0.000     

> <gridLJ>
-2.126    

> <gridEL>
0.000     

> <totalE>
10.622    

> <LGFE>
-2.126  

> <LE>
-0.304  

> <SMILES>
CC(C)C(N)=NO

> <atom.dprop.GFE>
-0.18 -0.25 -0.17 0 -0.76 -0.22 -0.55 0 0 0 0 0 0 0 0 0 0

> <atom.prop.CLASS>
PRPC PRPC PRPC NCLA GENA MEOO GEND NCLA NCLA NCLA NCLA NCLA NCLA NCLA NCLA NCLA NCLA

$$$$
21_1
     RDKit          3D

 17 16  0  0  0  0  0  0  0  0999 V2000
   -9.6355    0.0594   18.3463 C   0  0  0  0  0  0  0  0  0  0  0  0
  -11.0298    0.6806   18.1235 C   0  0  0  0  0  0  0  0  0  0  0  0
  -10.8321    2.0903   17.5182 C   0  0  0  0  0  0  0  0  0  0  0  0
  -11.7454    0.7702   19.4719 C   0  0  0  0  0  0  0  0  0  0  0  0
  -12.8584    0.2160   19.7330 N   0  0  0  0  0  0  0  0  0  0  0  0
  -13.3752    0.3086   21.0037 O   0  0  0  0  0  0  0  0  0  0  0  0
  -11.1460    1.5650   20.4290 N   0  0  0  0  0  0  0  0  0  0  0  0
   -9.1154    0.0063   17.3892 H   0  0  0  0  0  0  0  0  0  0  0  0
   -9.7598   -0.9419   18.7597 H   0  0  0  0  0  0  0  0  0  0  0  0
   -9.0774    0.6850   19.0468 H   0  0  0  0  0  0  0  0  0  0  0  0
  -11.6078    0.0743   17.4391 H   0  0  0  0  0  0  0  0  0  0  0  0
  -10.2097    2.6893   18.1859 H   0  0  0  0  0  0  0  0  0  0  0  0
  -11.8124    2.5559   17.4087 H   0  0  0  0  0  0  0  0  0  0  0  0
  -10.3534    1.9914   16.5435 H   0  0  0  0  0  0  0  0  0  0  0  0
  -12.6171    0.5103   21.5920 H   0  0  0  0  0  0  0  0  0  0  0  0
  -11.8494    2.1022   20.9518 H   0  0  0  0  0  0  0  0  0  0  0  0
  -10.3889    2.1472   20.0511 H   0  0  0  0  0  0  0  0  0  0  0  0
  1  2  1  0
  1  8  1  0
  1  9  1  0
  1 10  1  0
  2  3  1  0
  2  4  1  0
  2 11  1  0
  3 12  1  0
  3 13  1  0
  3 14  1  0
  4  5  2  0
  4  7  1  0
  5  6  1  0
  6 15  1  0
  7 16  1  0
  7 17  1  0
M  END
> <intraLJ>
7.547     

> <intraEL>
0.137     

> <intraDihe>
5.064     

> <interLJ>
0.000     

> <interEJ>
0.000     

> <gridLJ>
-2.162    

> <gridEL>
0.000     

> <totalE>
10.585    

> <LGFE>
-2.162  

> <LE>
-0.309  

> <SMILES>
CC(C)C(N)=NO

> <atom.dprop.GFE>
-0.09 0.089 0.065 0 -1 -0.87 -0.32 0 0 0 0 0 0 0 0 0 0

> <atom.prop.CLASS>
PRPC PRPC PRPC NCLA GENA MEOO GEND NCLA NCLA NCLA NCLA NCLA NCLA NCLA NCLA NCLA NCLA

$$$$
21_1
     RDKit          3D

 17 16  0  0  0  0  0  0  0  0999 V2000
    4.9513   16.1017    0.2902 C   0  0  0  0  0  0  0  0  0  0  0  0
    4.0405   17.3435    0.3801 C   0  0  0  0  0  0  0  0  0  0  0  0
    4.9426   18.5996    0.3439 C   0  0  0  0  0  0  0  0  0  0  0  0
    3.2583   17.2812    1.6925 C   0  0  0  0  0  0  0  0  0  0  0  0
    1.9905   17.2662    1.7734 N   0  0  0  0  0  0  0  0  0  0  0  0
    1.3958   17.1397    3.0066 O   0  0  0  0  0  0  0  0  0  0  0  0
    4.0086   17.3064    2.8516 N   0  0  0  0  0  0  0  0  0  0  0  0
    5.5220   16.1486   -0.6379 H   0  0  0  0  0  0  0  0  0  0  0  0
    4.3272   15.2077    0.2998 H   0  0  0  0  0  0  0  0  0  0  0  0
    5.6256   16.0946    1.1498 H   0  0  0  0  0  0  0  0  0  0  0  0
    3.3553   17.3700   -0.4565 H   0  0  0  0  0  0  0  0  0  0  0  0
    5.6659   18.5520    1.1604 H   0  0  0  0  0  0  0  0  0  0  0  0
    4.3087   19.4793    0.4617 H   0  0  0  0  0  0  0  0  0  0  0  0
    5.4587   18.6354   -0.6159 H   0  0  0  0  0  0  0  0  0  0  0  0
    2.0706   16.7393    3.5947 H   0  0  0  0  0  0  0  0  0  0  0  0
    3.5569   17.8897    3.5675 H   0  0  0  0  0  0  0  0  0  0  0  0
    4.9921   17.5528    2.6883 H   0  0  0  0  0  0  0  0  0  0  0  0
  1  2  1  0
  1  8  1  0
  1  9  1  0
  1 10  1  0
  2  3  1  0
  2  4  1  0
  2 11  1  0
  3 12  1  0
  3 13  1  0
  3 14  1  0
  4  5  2  0
  4  7  1  0
  5  6  1  0
  6 15  1  0
  7 16  1  0
  7 17  1  0
M  END
> <intraLJ>
7.547     

> <intraEL>
0.137     

> <intraDihe>
5.064     

> <interLJ>
0.000     

> <interEJ>
0.000     

> <gridLJ>
-2.116    

> <gridEL>
0.000     

> <totalE>
10.633    

> <LGFE>
-2.116  

> <LE>
-0.302  

> <SMILES>
CC(C)C(N)=NO

> <atom.dprop.GFE>
-0.085 -0.18 -0.18 0 -0.61 -0.61 -0.45 0 0 0 0 0 0 0 0 0 0

> <atom.prop.CLASS>
PRPC PRPC PRPC NCLA GENA MEOO GEND NCLA NCLA NCLA NCLA NCLA NCLA NCLA NCLA NCLA NCLA

$$$$
21_1
     RDKit          3D

 17 16  0  0  0  0  0  0  0  0999 V2000
  -21.0857   -1.0152   31.8017 C   0  0  0  0  0  0  0  0  0  0  0  0
  -22.2966   -1.3414   30.9033 C   0  0  0  0  0  0  0  0  0  0  0  0
  -22.8838   -0.0050   30.3914 C   0  0  0  0  0  0  0  0  0  0  0  0
  -23.3315   -2.0995   31.7355 C   0  0  0  0  0  0  0  0  0  0  0  0
  -23.7620   -3.2628   31.4607 N   0  0  0  0  0  0  0  0  0  0  0  0
  -24.6435   -3.8751   32.3201 O   0  0  0  0  0  0  0  0  0  0  0  0
  -23.8595   -1.4221   32.8169 N   0  0  0  0  0  0  0  0  0  0  0  0
  -20.3505   -0.4619   31.2164 H   0  0  0  0  0  0  0  0  0  0  0  0
  -20.6520   -1.9497   32.1586 H   0  0  0  0  0  0  0  0  0  0  0  0
  -21.4254   -0.4146   32.6489 H   0  0  0  0  0  0  0  0  0  0  0  0
  -21.9887   -1.9444   30.0597 H   0  0  0  0  0  0  0  0  0  0  0  0
  -23.1523    0.6243   31.2422 H   0  0  0  0  0  0  0  0  0  0  0  0
  -23.7727   -0.2267   29.7996 H   0  0  0  0  0  0  0  0  0  0  0  0
  -22.1371    0.4943   29.7733 H   0  0  0  0  0  0  0  0  0  0  0  0
  -24.5297   -3.4328   33.1878 H   0  0  0  0  0  0  0  0  0  0  0  0
  -24.8671   -1.6050   32.9071 H   0  0  0  0  0  0  0  0  0  0  0  0
  -23.6269   -0.4218   32.8170 H   0  0  0  0  0  0  0  0  0  0  0  0
  1  2  1  0
  1  8  1  0
  1  9  1  0
  1 10  1  0
  2  3  1  0
  2  4  1  0
  2 11  1  0
  3 12  1  0
  3 13  1  0
  3 14  1  0
  4  5  2  0
  4  7  1  0
  5  6  1  0
  6 15  1  0
  7 16  1  0
  7 17  1  0
M  END
> <intraLJ>
7.547     

> <intraEL>
0.137     

> <intraDihe>
5.064     

> <interLJ>
0.000     

> <interEJ>
0.000     

> <gridLJ>
-2.066    

> <gridEL>
0.000     

> <totalE>
10.682    

> <LGFE>
-2.066  

> <LE>
-0.295  

> <SMILES>
CC(C)C(N)=NO

> <atom.dprop.GFE>
-0.16 -0.2 -0.2 0 -0.63 -0.66 -0.22 0 0 0 0 0 0 0 0 0 0

> <atom.prop.CLASS>
PRPC PRPC PRPC NCLA GENA MEOO GEND NCLA NCLA NCLA NCLA NCLA NCLA NCLA NCLA NCLA NCLA

$$$$
21_1
     RDKit          3D

 17 16  0  0  0  0  0  0  0  0999 V2000
   25.5939   14.8085  -43.5202 C   0  0  0  0  0  0  0  0  0  0  0  0
   24.0887   15.0139  -43.7886 C   0  0  0  0  0  0  0  0  0  0  0  0
   23.7079   16.4331  -43.3052 C   0  0  0  0  0  0  0  0  0  0  0  0
   23.3056   13.9539  -43.0132 C   0  0  0  0  0  0  0  0  0  0  0  0
   22.5199   13.1088  -43.5449 N   0  0  0  0  0  0  0  0  0  0  0  0
   21.9204   12.1565  -42.7549 O   0  0  0  0  0  0  0  0  0  0  0  0
   23.4352   13.9835  -41.6387 N   0  0  0  0  0  0  0  0  0  0  0  0
   26.1563   15.5712  -44.0600 H   0  0  0  0  0  0  0  0  0  0  0  0
   25.8802   13.8162  -43.8699 H   0  0  0  0  0  0  0  0  0  0  0  0
   25.7763   14.8921  -42.4463 H   0  0  0  0  0  0  0  0  0  0  0  0
   23.8789   14.9270  -44.8462 H   0  0  0  0  0  0  0  0  0  0  0  0
   23.9621   16.5382  -42.2486 H   0  0  0  0  0  0  0  0  0  0  0  0
   22.6339   16.5643  -43.4425 H   0  0  0  0  0  0  0  0  0  0  0  0
   24.2540   17.1662  -43.8995 H   0  0  0  0  0  0  0  0  0  0  0  0
   22.4737   12.0838  -41.9486 H   0  0  0  0  0  0  0  0  0  0  0  0
   22.5331   13.7989  -41.1817 H   0  0  0  0  0  0  0  0  0  0  0  0
   23.8968   14.8349  -41.2969 H   0  0  0  0  0  0  0  0  0  0  0  0
  1  2  1  0
  1  8  1  0
  1  9  1  0
  1 10  1  0
  2  3  1  0
  2  4  1  0
  2 11  1  0
  3 12  1  0
  3 13  1  0
  3 14  1  0
  4  5  2  0
  4  7  1  0
  5  6  1  0
  6 15  1  0
  7 16  1  0
  7 17  1  0
M  END
> <intraLJ>
7.547     

> <intraEL>
0.137     

> <intraDihe>
5.064     

> <interLJ>
0.000     

> <interEJ>
0.000     

> <gridLJ>
-1.998    

> <gridEL>
0.000     

> <totalE>
10.749    

> <LGFE>
-1.998  

> <LE>
-0.285  

> <SMILES>
CC(C)C(N)=NO

> <atom.dprop.GFE>
0.022 0.058 0.026 0 -0.88 -0.85 -0.38 0 0 0 0 0 0 0 0 0 0

> <atom.prop.CLASS>
PRPC PRPC PRPC NCLA GENA MEOO GEND NCLA NCLA NCLA NCLA NCLA NCLA NCLA NCLA NCLA NCLA

$$$$
