22
     RDKit          3D

 12 12  0  0  0  0  0  0  0  0999 V2000
  -15.5221    6.3542   -1.5446 O   0  0  0  0  0  0  0  0  0  0  0  0
  -16.6882    7.1565   -1.7034 S   0  0  0  0  0  0  0  0  0  0  0  0
  -17.0285    8.1184   -0.7096 O   0  0  0  0  0  0  0  0  0  0  0  0
  -16.7841    7.8337   -3.3050 C   0  0  0  0  0  0  0  0  0  0  0  0
  -18.0639    6.8903   -3.6261 C   0  0  0  0  0  0  0  0  0  0  0  0
  -18.0660    6.1956   -2.1598 C   0  0  0  0  0  0  0  0  0  0  0  0
  -16.0099    7.5980   -4.0222 H   0  0  0  0  0  0  0  0  0  0  0  0
  -17.0920    8.8632   -3.4232 H   0  0  0  0  0  0  0  0  0  0  0  0
  -17.8630    6.1796   -4.4163 H   0  0  0  0  0  0  0  0  0  0  0  0
  -18.9618    7.4650   -3.8085 H   0  0  0  0  0  0  0  0  0  0  0  0
  -19.0244    6.3961   -1.6977 H   0  0  0  0  0  0  0  0  0  0  0  0
  -17.9426    5.1295   -2.2966 H   0  0  0  0  0  0  0  0  0  0  0  0
  1  2  2  0
  2  3  2  0
  2  4  1  0
  2  6  1  0
  4  5  1  0
  4  7  1  0
  4  8  1  0
  5  6  1  0
  5  9  1  0
  5 10  1  0
  6 11  1  0
  6 12  1  0
M  END
> <intraLJ>
-0.830    

> <intraEL>
0.015     

> <intraDihe>
20.344    

> <interLJ>
0.000     

> <interEJ>
0.000     

> <gridLJ>
-5.088    

> <gridEL>
0.000     

> <totalE>
14.440    

> <LGFE>
-5.088  

> <LE>
-0.848  

> <SMILES>
O=S1(=O)CCC1

> <atom.dprop.GFE>
-2 0 -1.5 -0.5 -0.58 -0.49 0 0 0 0 0 0

> <atom.prop.CLASS>
GENA NCLA GENA PRPC PRPC PRPC NCLA NCLA NCLA NCLA NCLA NCLA

$$$$
22
     RDKit          3D

 12 12  0  0  0  0  0  0  0  0999 V2000
  -20.2433    5.4172    6.5239 O   0  0  0  0  0  0  0  0  0  0  0  0
  -19.1836    5.8816    7.3547 S   0  0  0  0  0  0  0  0  0  0  0  0
  -19.3891    7.0053    8.2053 O   0  0  0  0  0  0  0  0  0  0  0  0
  -18.4176    4.5695    8.2058 C   0  0  0  0  0  0  0  0  0  0  0  0
  -17.0746    4.7809    7.3211 C   0  0  0  0  0  0  0  0  0  0  0  0
  -17.6913    6.0163    6.4688 C   0  0  0  0  0  0  0  0  0  0  0  0
  -18.7684    3.5600    8.0403 H   0  0  0  0  0  0  0  0  0  0  0  0
  -18.1543    4.6999    9.2461 H   0  0  0  0  0  0  0  0  0  0  0  0
  -16.8525    3.9242    6.6993 H   0  0  0  0  0  0  0  0  0  0  0  0
  -16.2288    5.0813    7.9245 H   0  0  0  0  0  0  0  0  0  0  0  0
  -17.0592    6.8804    6.6300 H   0  0  0  0  0  0  0  0  0  0  0  0
  -17.6729    5.7406    5.4228 H   0  0  0  0  0  0  0  0  0  0  0  0
  1  2  2  0
  2  3  2  0
  2  4  1  0
  2  6  1  0
  4  5  1  0
  4  7  1  0
  4  8  1  0
  5  6  1  0
  5  9  1  0
  5 10  1  0
  6 11  1  0
  6 12  1  0
M  END
> <intraLJ>
-0.830    

> <intraEL>
0.015     

> <intraDihe>
20.344    

> <interLJ>
0.000     

> <interEJ>
0.000     

> <gridLJ>
-5.064    

> <gridEL>
0.000     

> <totalE>
14.464    

> <LGFE>
-5.064  

> <LE>
-0.844  

> <SMILES>
O=S1(=O)CCC1

> <atom.dprop.GFE>
-1.9 0 -1.5 -0.58 -0.58 -0.51 0 0 0 0 0 0

> <atom.prop.CLASS>
GENA NCLA GENA PRPC PRPC PRPC NCLA NCLA NCLA NCLA NCLA NCLA

$$$$
22
     RDKit          3D

 12 12  0  0  0  0  0  0  0  0999 V2000
    1.5340   -2.0222   -6.5128 O   0  0  0  0  0  0  0  0  0  0  0  0
    0.9712   -2.6559   -5.3681 S   0  0  0  0  0  0  0  0  0  0  0  0
   -0.0755   -2.0154   -4.6451 O   0  0  0  0  0  0  0  0  0  0  0  0
    0.5983   -4.3277   -5.6824 C   0  0  0  0  0  0  0  0  0  0  0  0
    1.7785   -4.7811   -4.6662 C   0  0  0  0  0  0  0  0  0  0  0  0
    2.2072   -3.2593   -4.3012 C   0  0  0  0  0  0  0  0  0  0  0  0
    0.8217   -4.7417   -6.6562 H   0  0  0  0  0  0  0  0  0  0  0  0
   -0.3323   -4.7371   -5.3150 H   0  0  0  0  0  0  0  0  0  0  0  0
    2.5696   -5.3206   -5.1691 H   0  0  0  0  0  0  0  0  0  0  0  0
    1.3971   -5.3165   -3.8073 H   0  0  0  0  0  0  0  0  0  0  0  0
    2.0911   -3.1278   -3.2329 H   0  0  0  0  0  0  0  0  0  0  0  0
    3.2464   -3.1321   -4.5738 H   0  0  0  0  0  0  0  0  0  0  0  0
  1  2  2  0
  2  3  2  0
  2  4  1  0
  2  6  1  0
  4  5  1  0
  4  7  1  0
  4  8  1  0
  5  6  1  0
  5  9  1  0
  5 10  1  0
  6 11  1  0
  6 12  1  0
M  END
> <intraLJ>
-0.830    

> <intraEL>
0.015     

> <intraDihe>
20.344    

> <interLJ>
0.000     

> <interEJ>
0.000     

> <gridLJ>
-4.754    

> <gridEL>
0.000     

> <totalE>
14.775    

> <LGFE>
-4.754  

> <LE>
-0.792  

> <SMILES>
O=S1(=O)CCC1

> <atom.dprop.GFE>
-1.8 0 -1.6 -0.46 -0.44 -0.45 0 0 0 0 0 0

> <atom.prop.CLASS>
GENA NCLA GENA PRPC PRPC PRPC NCLA NCLA NCLA NCLA NCLA NCLA

$$$$
22
     RDKit          3D

 12 12  0  0  0  0  0  0  0  0999 V2000
  -23.0276    5.1152    6.9286 O   0  0  0  0  0  0  0  0  0  0  0  0
  -21.9538    4.9015    6.0175 S   0  0  0  0  0  0  0  0  0  0  0  0
  -20.6138    5.1553    6.4278 O   0  0  0  0  0  0  0  0  0  0  0  0
  -22.0940    3.3623    5.2150 C   0  0  0  0  0  0  0  0  0  0  0  0
  -22.3991    4.1214    3.8143 C   0  0  0  0  0  0  0  0  0  0  0  0
  -22.2887    5.6054    4.4610 C   0  0  0  0  0  0  0  0  0  0  0  0
  -22.9405    2.7279    5.4397 H   0  0  0  0  0  0  0  0  0  0  0  0
  -21.2085    2.7573    5.0793 H   0  0  0  0  0  0  0  0  0  0  0  0
  -23.3915    3.9101    3.4397 H   0  0  0  0  0  0  0  0  0  0  0  0
  -21.6324    3.9392    3.0735 H   0  0  0  0  0  0  0  0  0  0  0  0
  -21.5006    6.1368    3.9426 H   0  0  0  0  0  0  0  0  0  0  0  0
  -23.2334    6.1083    4.3026 H   0  0  0  0  0  0  0  0  0  0  0  0
  1  2  2  0
  2  3  2  0
  2  4  1  0
  2  6  1  0
  4  5  1  0
  4  7  1  0
  4  8  1  0
  5  6  1  0
  5  9  1  0
  5 10  1  0
  6 11  1  0
  6 12  1  0
M  END
> <intraLJ>
-0.830    

> <intraEL>
0.015     

> <intraDihe>
20.344    

> <interLJ>
0.000     

> <interEJ>
0.000     

> <gridLJ>
-4.084    

> <gridEL>
0.000     

> <totalE>
15.445    

> <LGFE>
-4.084  

> <LE>
-0.681  

> <SMILES>
O=S1(=O)CCC1

> <atom.dprop.GFE>
-0.96 0 -1.9 -0.4 -0.51 -0.34 0 0 0 0 0 0

> <atom.prop.CLASS>
GENA NCLA GENA PRPC PRPC PRPC NCLA NCLA NCLA NCLA NCLA NCLA

$$$$
22
     RDKit          3D

 12 12  0  0  0  0  0  0  0  0999 V2000
  -21.9615    1.2301   22.5337 O   0  0  0  0  0  0  0  0  0  0  0  0
  -20.8860    1.6426   23.3714 S   0  0  0  0  0  0  0  0  0  0  0  0
  -21.0937    2.6644   24.3416 O   0  0  0  0  0  0  0  0  0  0  0  0
  -20.0479    0.2770   24.0536 C   0  0  0  0  0  0  0  0  0  0  0  0
  -18.7466    0.6253   23.1501 C   0  0  0  0  0  0  0  0  0  0  0  0
  -19.4331    1.9200   22.4536 C   0  0  0  0  0  0  0  0  0  0  0  0
  -20.3733   -0.7216   23.7956 H   0  0  0  0  0  0  0  0  0  0  0  0
  -19.7496    0.3081   25.0922 H   0  0  0  0  0  0  0  0  0  0  0  0
  -18.5219   -0.1542   22.4348 H   0  0  0  0  0  0  0  0  0  0  0  0
  -17.8883    0.8909   23.7522 H   0  0  0  0  0  0  0  0  0  0  0  0
  -18.8225    2.7843   22.6824 H   0  0  0  0  0  0  0  0  0  0  0  0
  -19.4459    1.7549   21.3844 H   0  0  0  0  0  0  0  0  0  0  0  0
  1  2  2  0
  2  3  2  0
  2  4  1  0
  2  6  1  0
  4  5  1  0
  4  7  1  0
  4  8  1  0
  5  6  1  0
  5  9  1  0
  5 10  1  0
  6 11  1  0
  6 12  1  0
M  END
> <intraLJ>
-0.830    

> <intraEL>
0.015     

> <intraDihe>
20.344    

> <interLJ>
0.000     

> <interEJ>
0.000     

> <gridLJ>
-4.083    

> <gridEL>
0.000     

> <totalE>
15.445    

> <LGFE>
-4.083  

> <LE>
-0.681  

> <SMILES>
O=S1(=O)CCC1

> <atom.dprop.GFE>
-1.4 0 -1.7 -0.23 -0.5 -0.27 0 0 0 0 0 0

> <atom.prop.CLASS>
GENA NCLA GENA PRPC PRPC PRPC NCLA NCLA NCLA NCLA NCLA NCLA

$$$$
22
     RDKit          3D

 12 12  0  0  0  0  0  0  0  0999 V2000
  -19.1124   -5.8600   24.3612 O   0  0  0  0  0  0  0  0  0  0  0  0
  -20.1174   -5.7250   25.3614 S   0  0  0  0  0  0  0  0  0  0  0  0
  -21.0259   -4.6292   25.3112 O   0  0  0  0  0  0  0  0  0  0  0  0
  -20.9487   -7.2299   25.6385 C   0  0  0  0  0  0  0  0  0  0  0  0
  -20.2779   -7.3281   27.1121 C   0  0  0  0  0  0  0  0  0  0  0  0
  -19.4593   -5.9356   26.9591 C   0  0  0  0  0  0  0  0  0  0  0  0
  -20.6501   -8.1058   25.0790 H   0  0  0  0  0  0  0  0  0  0  0  0
  -22.0227   -7.2226   25.7619 H   0  0  0  0  0  0  0  0  0  0  0  0
  -19.6207   -8.1817   27.2087 H   0  0  0  0  0  0  0  0  0  0  0  0
  -21.0152   -7.2852   27.9022 H   0  0  0  0  0  0  0  0  0  0  0  0
  -19.7796   -5.2721   27.7524 H   0  0  0  0  0  0  0  0  0  0  0  0
  -18.4057   -6.1552   27.0700 H   0  0  0  0  0  0  0  0  0  0  0  0
  1  2  2  0
  2  3  2  0
  2  4  1  0
  2  6  1  0
  4  5  1  0
  4  7  1  0
  4  8  1  0
  5  6  1  0
  5  9  1  0
  5 10  1  0
  6 11  1  0
  6 12  1  0
M  END
> <intraLJ>
-0.830    

> <intraEL>
0.015     

> <intraDihe>
20.344    

> <interLJ>
0.000     

> <interEJ>
0.000     

> <gridLJ>
-3.954    

> <gridEL>
0.000     

> <totalE>
15.575    

> <LGFE>
-3.954  

> <LE>
-0.659  

> <SMILES>
O=S1(=O)CCC1

> <atom.dprop.GFE>
-1.5 0 -1.4 -0.34 -0.4 -0.32 0 0 0 0 0 0

> <atom.prop.CLASS>
GENA NCLA GENA PRPC PRPC PRPC NCLA NCLA NCLA NCLA NCLA NCLA

$$$$
22
     RDKit          3D

 12 12  0  0  0  0  0  0  0  0999 V2000
    8.7610   -5.1330    3.1000 O   0  0  0  0  0  0  0  0  0  0  0  0
    7.4530   -5.5497    2.7202 S   0  0  0  0  0  0  0  0  0  0  0  0
    7.0119   -5.3674    1.3783 O   0  0  0  0  0  0  0  0  0  0  0  0
    7.1030   -7.1564    3.2934 C   0  0  0  0  0  0  0  0  0  0  0  0
    6.0087   -6.5489    4.3252 C   0  0  0  0  0  0  0  0  0  0  0  0
    6.2557   -5.0130    3.8640 C   0  0  0  0  0  0  0  0  0  0  0  0
    7.8497   -7.6816    3.8731 H   0  0  0  0  0  0  0  0  0  0  0  0
    6.5936   -7.8492    2.6384 H   0  0  0  0  0  0  0  0  0  0  0  0
    6.2808   -6.7156    5.3586 H   0  0  0  0  0  0  0  0  0  0  0  0
    5.0051   -6.8866    4.1046 H   0  0  0  0  0  0  0  0  0  0  0  0
    5.3157   -4.6201    3.4974 H   0  0  0  0  0  0  0  0  0  0  0  0
    6.5718   -4.4515    4.7331 H   0  0  0  0  0  0  0  0  0  0  0  0
  1  2  2  0
  2  3  2  0
  2  4  1  0
  2  6  1  0
  4  5  1  0
  4  7  1  0
  4  8  1  0
  5  6  1  0
  5  9  1  0
  5 10  1  0
  6 11  1  0
  6 12  1  0
M  END
> <intraLJ>
-0.830    

> <intraEL>
0.015     

> <intraDihe>
20.344    

> <interLJ>
0.000     

> <interEJ>
0.000     

> <gridLJ>
-3.930    

> <gridEL>
0.000     

> <totalE>
15.599    

> <LGFE>
-3.930  

> <LE>
-0.655  

> <SMILES>
O=S1(=O)CCC1

> <atom.dprop.GFE>
-1.2 0 -1.5 -0.35 -0.39 -0.47 0 0 0 0 0 0

> <atom.prop.CLASS>
GENA NCLA GENA PRPC PRPC PRPC NCLA NCLA NCLA NCLA NCLA NCLA

$$$$
22
     RDKit          3D

 12 12  0  0  0  0  0  0  0  0999 V2000
   -3.9779   14.9600   -1.5082 O   0  0  0  0  0  0  0  0  0  0  0  0
   -2.6186   14.8423   -1.0995 S   0  0  0  0  0  0  0  0  0  0  0  0
   -2.1524   15.5698    0.0328 O   0  0  0  0  0  0  0  0  0  0  0  0
   -2.1114   13.1774   -1.0403 C   0  0  0  0  0  0  0  0  0  0  0  0
   -1.1302   13.4322   -2.3066 C   0  0  0  0  0  0  0  0  0  0  0  0
   -1.5311   14.9979   -2.4498 C   0  0  0  0  0  0  0  0  0  0  0  0
   -2.8149   12.4038   -1.3162 H   0  0  0  0  0  0  0  0  0  0  0  0
   -1.5042   12.8417   -0.2114 H   0  0  0  0  0  0  0  0  0  0  0  0
   -1.4191   12.8539   -3.1737 H   0  0  0  0  0  0  0  0  0  0  0  0
   -0.0878   13.2979   -2.0513 H   0  0  0  0  0  0  0  0  0  0  0  0
   -0.6286   15.5847   -2.3344 H   0  0  0  0  0  0  0  0  0  0  0  0
   -1.9395   15.1473   -3.4405 H   0  0  0  0  0  0  0  0  0  0  0  0
  1  2  2  0
  2  3  2  0
  2  4  1  0
  2  6  1  0
  4  5  1  0
  4  7  1  0
  4  8  1  0
  5  6  1  0
  5  9  1  0
  5 10  1  0
  6 11  1  0
  6 12  1  0
M  END
> <intraLJ>
-0.830    

> <intraEL>
0.015     

> <intraDihe>
20.344    

> <interLJ>
0.000     

> <interEJ>
0.000     

> <gridLJ>
-3.828    

> <gridEL>
0.000     

> <totalE>
15.701    

> <LGFE>
-3.828  

> <LE>
-0.638  

> <SMILES>
O=S1(=O)CCC1

> <atom.dprop.GFE>
-1 0 -0.87 -0.72 -0.58 -0.67 0 0 0 0 0 0

> <atom.prop.CLASS>
GENA NCLA GENA PRPC PRPC PRPC NCLA NCLA NCLA NCLA NCLA NCLA

$$$$
22
     RDKit          3D

 12 12  0  0  0  0  0  0  0  0999 V2000
  -26.9973   -4.1708    5.2450 O   0  0  0  0  0  0  0  0  0  0  0  0
  -26.3283   -4.7396    4.1236 S   0  0  0  0  0  0  0  0  0  0  0  0
  -25.0841   -4.1987    3.6901 O   0  0  0  0  0  0  0  0  0  0  0  0
  -26.2650   -6.4766    4.2314 C   0  0  0  0  0  0  0  0  0  0  0  0
  -27.2880   -6.5908    2.9778 C   0  0  0  0  0  0  0  0  0  0  0  0
  -27.4176   -4.9846    2.7882 C   0  0  0  0  0  0  0  0  0  0  0  0
  -26.7232   -6.9674    5.0792 H   0  0  0  0  0  0  0  0  0  0  0  0
  -25.3511   -6.9874    3.9623 H   0  0  0  0  0  0  0  0  0  0  0  0
  -28.2282   -7.0482    3.2544 H   0  0  0  0  0  0  0  0  0  0  0  0
  -26.8344   -7.0693    2.1204 H   0  0  0  0  0  0  0  0  0  0  0  0
  -27.0867   -4.7397    1.7868 H   0  0  0  0  0  0  0  0  0  0  0  0
  -28.4601   -4.7191    2.9033 H   0  0  0  0  0  0  0  0  0  0  0  0
  1  2  2  0
  2  3  2  0
  2  4  1  0
  2  6  1  0
  4  5  1  0
  4  7  1  0
  4  8  1  0
  5  6  1  0
  5  9  1  0
  5 10  1  0
  6 11  1  0
  6 12  1  0
M  END
> <intraLJ>
-0.830    

> <intraEL>
0.015     

> <intraDihe>
20.344    

> <interLJ>
0.000     

> <interEJ>
0.000     

> <gridLJ>
-3.647    

> <gridEL>
0.000     

> <totalE>
15.882    

> <LGFE>
-3.647  

> <LE>
-0.608  

> <SMILES>
O=S1(=O)CCC1

> <atom.dprop.GFE>
-1.3 0 -1.3 -0.38 -0.34 -0.33 0 0 0 0 0 0

> <atom.prop.CLASS>
GENA NCLA GENA PRPC PRPC PRPC NCLA NCLA NCLA NCLA NCLA NCLA

$$$$
22
     RDKit          3D

 12 12  0  0  0  0  0  0  0  0999 V2000
   21.4514   16.1275   -5.2707 O   0  0  0  0  0  0  0  0  0  0  0  0
   20.9792   15.0305   -4.4945 S   0  0  0  0  0  0  0  0  0  0  0  0
   21.8783   14.3215   -3.6474 O   0  0  0  0  0  0  0  0  0  0  0  0
   19.4994   15.4250   -3.6654 C   0  0  0  0  0  0  0  0  0  0  0  0
   18.6923   14.3850   -4.6130 C   0  0  0  0  0  0  0  0  0  0  0  0
   20.0109   13.9439   -5.4493 C   0  0  0  0  0  0  0  0  0  0  0  0
   19.0651   16.4057   -3.8038 H   0  0  0  0  0  0  0  0  0  0  0  0
   19.3708   15.1088   -2.6397 H   0  0  0  0  0  0  0  0  0  0  0  0
   17.9587   14.8796   -5.2351 H   0  0  0  0  0  0  0  0  0  0  0  0
   18.2688   13.5629   -4.0522 H   0  0  0  0  0  0  0  0  0  0  0  0
   20.1413   12.8761   -5.3266 H   0  0  0  0  0  0  0  0  0  0  0  0
   19.8354   14.1727   -6.4921 H   0  0  0  0  0  0  0  0  0  0  0  0
  1  2  2  0
  2  3  2  0
  2  4  1  0
  2  6  1  0
  4  5  1  0
  4  7  1  0
  4  8  1  0
  5  6  1  0
  5  9  1  0
  5 10  1  0
  6 11  1  0
  6 12  1  0
M  END
> <intraLJ>
-0.830    

> <intraEL>
0.015     

> <intraDihe>
20.344    

> <interLJ>
0.000     

> <interEJ>
0.000     

> <gridLJ>
-3.691    

> <gridEL>
0.000     

> <totalE>
15.838    

> <LGFE>
-3.691  

> <LE>
-0.615  

> <SMILES>
O=S1(=O)CCC1

> <atom.dprop.GFE>
-0.98 0 -1 -0.59 -0.52 -0.55 0 0 0 0 0 0

> <atom.prop.CLASS>
GENA NCLA GENA PRPC PRPC PRPC NCLA NCLA NCLA NCLA NCLA NCLA

$$$$
22
     RDKit          3D

 12 12  0  0  0  0  0  0  0  0999 V2000
   -6.9973   -7.0967    1.4216 O   0  0  0  0  0  0  0  0  0  0  0  0
   -6.6077   -8.0511    2.4045 S   0  0  0  0  0  0  0  0  0  0  0  0
   -5.5773   -7.7317    3.3345 O   0  0  0  0  0  0  0  0  0  0  0  0
   -7.9904   -8.7493    3.2002 C   0  0  0  0  0  0  0  0  0  0  0  0
   -7.6771  -10.1746    2.4921 C   0  0  0  0  0  0  0  0  0  0  0  0
   -6.3690   -9.6266    1.7039 C   0  0  0  0  0  0  0  0  0  0  0  0
   -8.9818   -8.4398    2.8986 H   0  0  0  0  0  0  0  0  0  0  0  0
   -7.9624   -8.8966    4.2707 H   0  0  0  0  0  0  0  0  0  0  0  0
   -8.4647  -10.4802    1.8167 H   0  0  0  0  0  0  0  0  0  0  0  0
   -7.4300  -10.9441    3.2107 H   0  0  0  0  0  0  0  0  0  0  0  0
   -5.5188  -10.2192    2.0174 H   0  0  0  0  0  0  0  0  0  0  0  0
   -6.5379   -9.7629    0.6440 H   0  0  0  0  0  0  0  0  0  0  0  0
  1  2  2  0
  2  3  2  0
  2  4  1  0
  2  6  1  0
  4  5  1  0
  4  7  1  0
  4  8  1  0
  5  6  1  0
  5  9  1  0
  5 10  1  0
  6 11  1  0
  6 12  1  0
M  END
> <intraLJ>
-0.830    

> <intraEL>
0.015     

> <intraDihe>
20.344    

> <interLJ>
0.000     

> <interEJ>
0.000     

> <gridLJ>
-3.534    

> <gridEL>
0.000     

> <totalE>
15.994    

> <LGFE>
-3.534  

> <LE>
-0.589  

> <SMILES>
O=S1(=O)CCC1

> <atom.dprop.GFE>
-1.3 0 -1.3 -0.34 -0.35 -0.28 0 0 0 0 0 0

> <atom.prop.CLASS>
GENA NCLA GENA PRPC PRPC PRPC NCLA NCLA NCLA NCLA NCLA NCLA

$$$$
22
     RDKit          3D

 12 12  0  0  0  0  0  0  0  0999 V2000
  -23.2648    8.9398   13.2703 O   0  0  0  0  0  0  0  0  0  0  0  0
  -24.1694    8.0680   12.5991 S   0  0  0  0  0  0  0  0  0  0  0  0
  -25.0742    7.2670   13.3529 O   0  0  0  0  0  0  0  0  0  0  0  0
  -24.9763    8.8747   11.2835 C   0  0  0  0  0  0  0  0  0  0  0  0
  -24.1683    7.9511   10.2227 C   0  0  0  0  0  0  0  0  0  0  0  0
  -23.3626    7.1351   11.3707 C   0  0  0  0  0  0  0  0  0  0  0  0
  -24.7358    9.9081   11.0742 H   0  0  0  0  0  0  0  0  0  0  0  0
  -26.0335    8.7068   11.1328 H   0  0  0  0  0  0  0  0  0  0  0  0
  -23.5082    8.5308    9.5919 H   0  0  0  0  0  0  0  0  0  0  0  0
  -24.8268    7.3113    9.6510 H   0  0  0  0  0  0  0  0  0  0  0  0
  -23.6032    6.0849   11.2637 H   0  0  0  0  0  0  0  0  0  0  0  0
  -22.3042    7.2858   11.2049 H   0  0  0  0  0  0  0  0  0  0  0  0
  1  2  2  0
  2  3  2  0
  2  4  1  0
  2  6  1  0
  4  5  1  0
  4  7  1  0
  4  8  1  0
  5  6  1  0
  5  9  1  0
  5 10  1  0
  6 11  1  0
  6 12  1  0
M  END
> <intraLJ>
-0.830    

> <intraEL>
0.015     

> <intraDihe>
20.344    

> <interLJ>
0.000     

> <interEJ>
0.000     

> <gridLJ>
-3.516    

> <gridEL>
0.000     

> <totalE>
16.013    

> <LGFE>
-3.516  

> <LE>
-0.586  

> <SMILES>
O=S1(=O)CCC1

> <atom.dprop.GFE>
-1.2 0 -1.1 -0.43 -0.26 -0.56 0 0 0 0 0 0

> <atom.prop.CLASS>
GENA NCLA GENA PRPC PRPC PRPC NCLA NCLA NCLA NCLA NCLA NCLA

$$$$
22
     RDKit          3D

 12 12  0  0  0  0  0  0  0  0999 V2000
  -20.7902   -3.8794   23.5384 O   0  0  0  0  0  0  0  0  0  0  0  0
  -19.7018   -3.4453   24.3480 S   0  0  0  0  0  0  0  0  0  0  0  0
  -19.1018   -4.3468   25.2732 O   0  0  0  0  0  0  0  0  0  0  0  0
  -18.5012   -2.6052   23.4070 C   0  0  0  0  0  0  0  0  0  0  0  0
  -18.8876   -1.2182   24.1540 C   0  0  0  0  0  0  0  0  0  0  0  0
  -20.0294   -1.9015   25.0824 C   0  0  0  0  0  0  0  0  0  0  0  0
  -18.6659   -2.4681   22.3469 H   0  0  0  0  0  0  0  0  0  0  0  0
  -17.4547   -2.8025   23.5926 H   0  0  0  0  0  0  0  0  0  0  0  0
  -19.2975   -0.4846   23.4730 H   0  0  0  0  0  0  0  0  0  0  0  0
  -18.0667   -0.8241   24.7376 H   0  0  0  0  0  0  0  0  0  0  0  0
  -19.7561   -1.7421   26.1178 H   0  0  0  0  0  0  0  0  0  0  0  0
  -20.9686   -1.4071   24.8725 H   0  0  0  0  0  0  0  0  0  0  0  0
  1  2  2  0
  2  3  2  0
  2  4  1  0
  2  6  1  0
  4  5  1  0
  4  7  1  0
  4  8  1  0
  5  6  1  0
  5  9  1  0
  5 10  1  0
  6 11  1  0
  6 12  1  0
M  END
> <intraLJ>
-0.830    

> <intraEL>
0.015     

> <intraDihe>
20.344    

> <interLJ>
0.000     

> <interEJ>
0.000     

> <gridLJ>
-3.360    

> <gridEL>
0.000     

> <totalE>
16.169    

> <LGFE>
-3.360  

> <LE>
-0.560  

> <SMILES>
O=S1(=O)CCC1

> <atom.dprop.GFE>
-1.5 0 -1.5 -0.16 -0.31 0.065 0 0 0 0 0 0

> <atom.prop.CLASS>
GENA NCLA GENA PRPC PRPC PRPC NCLA NCLA NCLA NCLA NCLA NCLA

$$$$
22
     RDKit          3D

 12 12  0  0  0  0  0  0  0  0999 V2000
   24.1053    7.8245   -8.4216 O   0  0  0  0  0  0  0  0  0  0  0  0
   23.8214    6.7541   -7.5258 S   0  0  0  0  0  0  0  0  0  0  0  0
   24.8361    6.2747   -6.6488 O   0  0  0  0  0  0  0  0  0  0  0  0
   22.3186    7.0079   -6.6833 C   0  0  0  0  0  0  0  0  0  0  0  0
   21.6555    5.7699   -7.4949 C   0  0  0  0  0  0  0  0  0  0  0  0
   23.0059    5.4457   -8.3340 C   0  0  0  0  0  0  0  0  0  0  0  0
   21.7385    7.8948   -6.8992 H   0  0  0  0  0  0  0  0  0  0  0  0
   22.2626    6.7816   -5.6278 H   0  0  0  0  0  0  0  0  0  0  0  0
   20.8418    6.0856   -8.1337 H   0  0  0  0  0  0  0  0  0  0  0  0
   21.3735    4.9553   -6.8418 H   0  0  0  0  0  0  0  0  0  0  0  0
   23.2982    4.4267   -8.1138 H   0  0  0  0  0  0  0  0  0  0  0  0
   22.7741    5.5396   -9.3866 H   0  0  0  0  0  0  0  0  0  0  0  0
  1  2  2  0
  2  3  2  0
  2  4  1  0
  2  6  1  0
  4  5  1  0
  4  7  1  0
  4  8  1  0
  5  6  1  0
  5  9  1  0
  5 10  1  0
  6 11  1  0
  6 12  1  0
M  END
> <intraLJ>
-0.830    

> <intraEL>
0.015     

> <intraDihe>
20.344    

> <interLJ>
0.000     

> <interEJ>
0.000     

> <gridLJ>
-3.234    

> <gridEL>
0.000     

> <totalE>
16.294    

> <LGFE>
-3.234  

> <LE>
-0.539  

> <SMILES>
O=S1(=O)CCC1

> <atom.dprop.GFE>
-1.3 0 -1.1 -0.31 -0.28 -0.32 0 0 0 0 0 0

> <atom.prop.CLASS>
GENA NCLA GENA PRPC PRPC PRPC NCLA NCLA NCLA NCLA NCLA NCLA

$$$$
22
     RDKit          3D

 12 12  0  0  0  0  0  0  0  0999 V2000
    9.7908   13.9573  -34.6854 O   0  0  0  0  0  0  0  0  0  0  0  0
    9.0578   13.1377  -35.5908 S   0  0  0  0  0  0  0  0  0  0  0  0
    9.7390   12.1681  -36.3809 O   0  0  0  0  0  0  0  0  0  0  0  0
    7.6399   12.4636  -34.8372 C   0  0  0  0  0  0  0  0  0  0  0  0
    6.6995   13.3883  -35.7816 C   0  0  0  0  0  0  0  0  0  0  0  0
    7.9510   14.0787  -36.5496 C   0  0  0  0  0  0  0  0  0  0  0  0
    7.4233   12.7130  -33.8075 H   0  0  0  0  0  0  0  0  0  0  0  0
    7.3855   11.4298  -35.0251 H   0  0  0  0  0  0  0  0  0  0  0  0
    6.1223   14.1041  -35.2123 H   0  0  0  0  0  0  0  0  0  0  0  0
    6.0835   12.8004  -36.4484 H   0  0  0  0  0  0  0  0  0  0  0  0
    7.8538   13.8624  -37.6060 H   0  0  0  0  0  0  0  0  0  0  0  0
    7.8915   15.1470  -36.3888 H   0  0  0  0  0  0  0  0  0  0  0  0
  1  2  2  0
  2  3  2  0
  2  4  1  0
  2  6  1  0
  4  5  1  0
  4  7  1  0
  4  8  1  0
  5  6  1  0
  5  9  1  0
  5 10  1  0
  6 11  1  0
  6 12  1  0
M  END
> <intraLJ>
-0.830    

> <intraEL>
0.015     

> <intraDihe>
20.344    

> <interLJ>
0.000     

> <interEJ>
0.000     

> <gridLJ>
-3.244    

> <gridEL>
0.000     

> <totalE>
16.285    

> <LGFE>
-3.244  

> <LE>
-0.541  

> <SMILES>
O=S1(=O)CCC1

> <atom.dprop.GFE>
-0.95 0 -1.6 -0.29 -0.15 -0.3 0 0 0 0 0 0

> <atom.prop.CLASS>
GENA NCLA GENA PRPC PRPC PRPC NCLA NCLA NCLA NCLA NCLA NCLA

$$$$
22
     RDKit          3D

 12 12  0  0  0  0  0  0  0  0999 V2000
  -19.0958   -3.9190   23.3732 O   0  0  0  0  0  0  0  0  0  0  0  0
  -18.4315   -3.0962   24.3273 S   0  0  0  0  0  0  0  0  0  0  0  0
  -18.5820   -3.3598   25.7189 O   0  0  0  0  0  0  0  0  0  0  0  0
  -16.7610   -2.8472   23.9029 C   0  0  0  0  0  0  0  0  0  0  0  0
  -17.0726   -1.2850   23.5967 C   0  0  0  0  0  0  0  0  0  0  0  0
  -18.6467   -1.4059   23.9712 C   0  0  0  0  0  0  0  0  0  0  0  0
  -16.3775   -3.2930   22.9953 H   0  0  0  0  0  0  0  0  0  0  0  0
  -16.0092   -2.8905   24.6784 H   0  0  0  0  0  0  0  0  0  0  0  0
  -16.9167   -1.0306   22.5571 H   0  0  0  0  0  0  0  0  0  0  0  0
  -16.5419   -0.6220   24.2664 H   0  0  0  0  0  0  0  0  0  0  0  0
  -18.8497   -0.7184   24.7825 H   0  0  0  0  0  0  0  0  0  0  0  0
  -19.2190   -1.1202   23.0987 H   0  0  0  0  0  0  0  0  0  0  0  0
  1  2  2  0
  2  3  2  0
  2  4  1  0
  2  6  1  0
  4  5  1  0
  4  7  1  0
  4  8  1  0
  5  6  1  0
  5  9  1  0
  5 10  1  0
  6 11  1  0
  6 12  1  0
M  END
> <intraLJ>
-0.830    

> <intraEL>
0.015     

> <intraDihe>
20.344    

> <interLJ>
0.000     

> <interEJ>
0.000     

> <gridLJ>
-3.265    

> <gridEL>
0.000     

> <totalE>
16.264    

> <LGFE>
-3.265  

> <LE>
-0.544  

> <SMILES>
O=S1(=O)CCC1

> <atom.dprop.GFE>
-1.6 0 -0.78 -0.17 -0.38 -0.31 0 0 0 0 0 0

> <atom.prop.CLASS>
GENA NCLA GENA PRPC PRPC PRPC NCLA NCLA NCLA NCLA NCLA NCLA

$$$$
22
     RDKit          3D

 12 12  0  0  0  0  0  0  0  0999 V2000
  -14.3442    9.1340  -15.5530 O   0  0  0  0  0  0  0  0  0  0  0  0
  -15.0720    7.9135  -15.6491 S   0  0  0  0  0  0  0  0  0  0  0  0
  -14.7356    6.9641  -16.6561 O   0  0  0  0  0  0  0  0  0  0  0  0
  -15.2540    7.1541  -14.0925 C   0  0  0  0  0  0  0  0  0  0  0  0
  -16.8461    7.4622  -14.1294 C   0  0  0  0  0  0  0  0  0  0  0  0
  -16.7895    8.1882  -15.5793 C   0  0  0  0  0  0  0  0  0  0  0  0
  -14.8420    7.6409  -13.2192 H   0  0  0  0  0  0  0  0  0  0  0  0
  -15.1242    6.0840  -14.0110 H   0  0  0  0  0  0  0  0  0  0  0  0
  -17.1523    8.1392  -13.3435 H   0  0  0  0  0  0  0  0  0  0  0  0
  -17.4387    6.5576  -14.1470 H   0  0  0  0  0  0  0  0  0  0  0  0
  -17.4383    7.6408  -16.2514 H   0  0  0  0  0  0  0  0  0  0  0  0
  -17.1569    9.1988  -15.4599 H   0  0  0  0  0  0  0  0  0  0  0  0
  1  2  2  0
  2  3  2  0
  2  4  1  0
  2  6  1  0
  4  5  1  0
  4  7  1  0
  4  8  1  0
  5  6  1  0
  5  9  1  0
  5 10  1  0
  6 11  1  0
  6 12  1  0
M  END
> <intraLJ>
-0.830    

> <intraEL>
0.015     

> <intraDihe>
20.344    

> <interLJ>
0.000     

> <interEJ>
0.000     

> <gridLJ>
-3.151    

> <gridEL>
0.000     

> <totalE>
16.378    

> <LGFE>
-3.151  

> <LE>
-0.525  

> <SMILES>
O=S1(=O)CCC1

> <atom.dprop.GFE>
-0.87 0 -1.1 -0.37 -0.4 -0.46 0 0 0 0 0 0

> <atom.prop.CLASS>
GENA NCLA GENA PRPC PRPC PRPC NCLA NCLA NCLA NCLA NCLA NCLA

$$$$
22
     RDKit          3D

 12 12  0  0  0  0  0  0  0  0999 V2000
   18.9070   -1.6020  -36.3126 O   0  0  0  0  0  0  0  0  0  0  0  0
   18.0246   -1.8174  -35.2155 S   0  0  0  0  0  0  0  0  0  0  0  0
   16.9752   -0.8900  -34.9561 O   0  0  0  0  0  0  0  0  0  0  0  0
   17.4484   -3.4603  -35.1725 C   0  0  0  0  0  0  0  0  0  0  0  0
   18.3036   -3.7238  -33.8196 C   0  0  0  0  0  0  0  0  0  0  0  0
   18.8981   -2.2152  -33.7633 C   0  0  0  0  0  0  0  0  0  0  0  0
   17.7928   -4.1576  -35.9239 H   0  0  0  0  0  0  0  0  0  0  0  0
   16.4072   -3.6468  -34.9493 H   0  0  0  0  0  0  0  0  0  0  0  0
   19.0786   -4.4650  -33.9608 H   0  0  0  0  0  0  0  0  0  0  0  0
   17.6709   -3.9469  -32.9713 H   0  0  0  0  0  0  0  0  0  0  0  0
   18.5904   -1.7708  -32.8252 H   0  0  0  0  0  0  0  0  0  0  0  0
   19.9773   -2.2814  -33.7993 H   0  0  0  0  0  0  0  0  0  0  0  0
  1  2  2  0
  2  3  2  0
  2  4  1  0
  2  6  1  0
  4  5  1  0
  4  7  1  0
  4  8  1  0
  5  6  1  0
  5  9  1  0
  5 10  1  0
  6 11  1  0
  6 12  1  0
M  END
> <intraLJ>
-0.830    

> <intraEL>
0.015     

> <intraDihe>
20.344    

> <interLJ>
0.000     

> <interEJ>
0.000     

> <gridLJ>
-3.124    

> <gridEL>
0.000     

> <totalE>
16.405    

> <LGFE>
-3.124  

> <LE>
-0.521  

> <SMILES>
O=S1(=O)CCC1

> <atom.dprop.GFE>
-1.4 0 -0.7 -0.28 -0.36 -0.41 0 0 0 0 0 0

> <atom.prop.CLASS>
GENA NCLA GENA PRPC PRPC PRPC NCLA NCLA NCLA NCLA NCLA NCLA

$$$$
22
     RDKit          3D

 12 12  0  0  0  0  0  0  0  0999 V2000
   23.4788    7.0288   -6.9095 O   0  0  0  0  0  0  0  0  0  0  0  0
   24.3590    6.7775   -8.0008 S   0  0  0  0  0  0  0  0  0  0  0  0
   24.6895    5.4372   -8.3518 O   0  0  0  0  0  0  0  0  0  0  0  0
   23.9223    7.7142   -9.4024 C   0  0  0  0  0  0  0  0  0  0  0  0
   25.2747    8.5939   -9.2348 C   0  0  0  0  0  0  0  0  0  0  0  0
   25.7768    7.7843   -7.9213 C   0  0  0  0  0  0  0  0  0  0  0  0
   23.0786    8.3880   -9.3419 H   0  0  0  0  0  0  0  0  0  0  0  0
   23.9485    7.2465  -10.3766 H   0  0  0  0  0  0  0  0  0  0  0  0
   25.0654    9.6332   -9.0207 H   0  0  0  0  0  0  0  0  0  0  0  0
   25.9485    8.4741  -10.0723 H   0  0  0  0  0  0  0  0  0  0  0  0
   26.7434    7.3516   -8.1461 H   0  0  0  0  0  0  0  0  0  0  0  0
   25.8741    8.4938   -7.1103 H   0  0  0  0  0  0  0  0  0  0  0  0
  1  2  2  0
  2  3  2  0
  2  4  1  0
  2  6  1  0
  4  5  1  0
  4  7  1  0
  4  8  1  0
  5  6  1  0
  5  9  1  0
  5 10  1  0
  6 11  1  0
  6 12  1  0
M  END
> <intraLJ>
-0.830    

> <intraEL>
0.015     

> <intraDihe>
20.344    

> <interLJ>
0.000     

> <interEJ>
0.000     

> <gridLJ>
-3.168    

> <gridEL>
0.000     

> <totalE>
16.361    

> <LGFE>
-3.168  

> <LE>
-0.528  

> <SMILES>
O=S1(=O)CCC1

> <atom.dprop.GFE>
-1.2 0 -0.85 -0.41 -0.34 -0.33 0 0 0 0 0 0

> <atom.prop.CLASS>
GENA NCLA GENA PRPC PRPC PRPC NCLA NCLA NCLA NCLA NCLA NCLA

$$$$
22
     RDKit          3D

 12 12  0  0  0  0  0  0  0  0999 V2000
  -26.0518   -4.1905    4.9499 O   0  0  0  0  0  0  0  0  0  0  0  0
  -25.4685   -5.1585    4.0830 S   0  0  0  0  0  0  0  0  0  0  0  0
  -24.0830   -5.4686    4.1955 O   0  0  0  0  0  0  0  0  0  0  0  0
  -26.4393   -6.6014    3.9918 C   0  0  0  0  0  0  0  0  0  0  0  0
  -26.8074   -6.2552    2.4504 C   0  0  0  0  0  0  0  0  0  0  0  0
  -25.9299   -4.8906    2.4260 C   0  0  0  0  0  0  0  0  0  0  0  0
  -27.3637   -6.6489    4.5510 H   0  0  0  0  0  0  0  0  0  0  0  0
  -25.9510   -7.5657    4.0084 H   0  0  0  0  0  0  0  0  0  0  0  0
  -27.8634   -6.0662    2.3123 H   0  0  0  0  0  0  0  0  0  0  0  0
  -26.4290   -6.9981    1.7614 H   0  0  0  0  0  0  0  0  0  0  0  0
  -25.1827   -4.9891    1.6487 H   0  0  0  0  0  0  0  0  0  0  0  0
  -26.5958   -4.0711    2.1906 H   0  0  0  0  0  0  0  0  0  0  0  0
  1  2  2  0
  2  3  2  0
  2  4  1  0
  2  6  1  0
  4  5  1  0
  4  7  1  0
  4  8  1  0
  5  6  1  0
  5  9  1  0
  5 10  1  0
  6 11  1  0
  6 12  1  0
M  END
> <intraLJ>
-0.830    

> <intraEL>
0.015     

> <intraDihe>
20.344    

> <interLJ>
0.000     

> <interEJ>
0.000     

> <gridLJ>
-3.112    

> <gridEL>
0.000     

> <totalE>
16.417    

> <LGFE>
-3.112  

> <LE>
-0.519  

> <SMILES>
O=S1(=O)CCC1

> <atom.dprop.GFE>
-1.4 0 -0.65 -0.38 -0.37 -0.32 0 0 0 0 0 0

> <atom.prop.CLASS>
GENA NCLA GENA PRPC PRPC PRPC NCLA NCLA NCLA NCLA NCLA NCLA

$$$$
22
     RDKit          3D

 12 12  0  0  0  0  0  0  0  0999 V2000
   -3.0240    3.7607    7.4777 O   0  0  0  0  0  0  0  0  0  0  0  0
   -2.5174    3.5097    8.7850 S   0  0  0  0  0  0  0  0  0  0  0  0
   -1.1377    3.2053    8.9651 O   0  0  0  0  0  0  0  0  0  0  0  0
   -3.0579    4.7136    9.9214 C   0  0  0  0  0  0  0  0  0  0  0  0
   -3.9740    3.5999   10.6641 C   0  0  0  0  0  0  0  0  0  0  0  0
   -3.5349    2.4022    9.6614 C   0  0  0  0  0  0  0  0  0  0  0  0
   -3.7106    5.5046    9.5780 H   0  0  0  0  0  0  0  0  0  0  0  0
   -2.3576    5.1050   10.6459 H   0  0  0  0  0  0  0  0  0  0  0  0
   -5.0298    3.8245   10.5969 H   0  0  0  0  0  0  0  0  0  0  0  0
   -3.6558    3.4194   11.6819 H   0  0  0  0  0  0  0  0  0  0  0  0
   -3.0755    1.6222   10.2553 H   0  0  0  0  0  0  0  0  0  0  0  0
   -4.4294    2.0208    9.1870 H   0  0  0  0  0  0  0  0  0  0  0  0
  1  2  2  0
  2  3  2  0
  2  4  1  0
  2  6  1  0
  4  5  1  0
  4  7  1  0
  4  8  1  0
  5  6  1  0
  5  9  1  0
  5 10  1  0
  6 11  1  0
  6 12  1  0
M  END
> <intraLJ>
-0.830    

> <intraEL>
0.015     

> <intraDihe>
20.344    

> <interLJ>
0.000     

> <interEJ>
0.000     

> <gridLJ>
-3.055    

> <gridEL>
0.000     

> <totalE>
16.474    

> <LGFE>
-3.055  

> <LE>
-0.509  

> <SMILES>
O=S1(=O)CCC1

> <atom.dprop.GFE>
-0.91 0 -1.1 -0.4 -0.26 -0.4 0 0 0 0 0 0

> <atom.prop.CLASS>
GENA NCLA GENA PRPC PRPC PRPC NCLA NCLA NCLA NCLA NCLA NCLA

$$$$
22
     RDKit          3D

 12 12  0  0  0  0  0  0  0  0999 V2000
   22.6855    3.3343  -32.3922 O   0  0  0  0  0  0  0  0  0  0  0  0
   22.9088    3.7007  -31.0340 S   0  0  0  0  0  0  0  0  0  0  0  0
   22.8408    5.0699  -30.6480 O   0  0  0  0  0  0  0  0  0  0  0  0
   22.0087    2.6853  -29.9425 C   0  0  0  0  0  0  0  0  0  0  0  0
   23.3938    2.0273  -29.4137 C   0  0  0  0  0  0  0  0  0  0  0  0
   24.3281    2.9258  -30.3898 C   0  0  0  0  0  0  0  0  0  0  0  0
   21.3973    1.8905  -30.3477 H   0  0  0  0  0  0  0  0  0  0  0  0
   21.5100    3.1356  -29.0956 H   0  0  0  0  0  0  0  0  0  0  0  0
   23.4604    0.9718  -29.6399 H   0  0  0  0  0  0  0  0  0  0  0  0
   23.5741    2.2360  -28.3679 H   0  0  0  0  0  0  0  0  0  0  0  0
   25.0048    3.4986  -29.7683 H   0  0  0  0  0  0  0  0  0  0  0  0
   24.8933    2.2530  -31.0210 H   0  0  0  0  0  0  0  0  0  0  0  0
  1  2  2  0
  2  3  2  0
  2  4  1  0
  2  6  1  0
  4  5  1  0
  4  7  1  0
  4  8  1  0
  5  6  1  0
  5  9  1  0
  5 10  1  0
  6 11  1  0
  6 12  1  0
M  END
> <intraLJ>
-0.830    

> <intraEL>
0.015     

> <intraDihe>
20.344    

> <interLJ>
0.000     

> <interEJ>
0.000     

> <gridLJ>
-3.049    

> <gridEL>
0.000     

> <totalE>
16.480    

> <LGFE>
-3.049  

> <LE>
-0.508  

> <SMILES>
O=S1(=O)CCC1

> <atom.dprop.GFE>
-1.1 0 -1.2 -0.36 -0.3 -0.1 0 0 0 0 0 0

> <atom.prop.CLASS>
GENA NCLA GENA PRPC PRPC PRPC NCLA NCLA NCLA NCLA NCLA NCLA

$$$$
22
     RDKit          3D

 12 12  0  0  0  0  0  0  0  0999 V2000
   17.1810    5.1722   -5.2347 O   0  0  0  0  0  0  0  0  0  0  0  0
   18.1749    6.1857   -5.3518 S   0  0  0  0  0  0  0  0  0  0  0  0
   18.1333    7.0973   -6.4454 O   0  0  0  0  0  0  0  0  0  0  0  0
   18.4232    7.0144   -3.8404 C   0  0  0  0  0  0  0  0  0  0  0  0
   19.9006    6.3552   -3.7228 C   0  0  0  0  0  0  0  0  0  0  0  0
   19.7746    5.5399   -5.1199 C   0  0  0  0  0  0  0  0  0  0  0  0
   17.8533    6.7083   -2.9737 H   0  0  0  0  0  0  0  0  0  0  0  0
   18.5379    8.0893   -3.8426 H   0  0  0  0  0  0  0  0  0  0  0  0
   19.9901    5.6960   -2.8700 H   0  0  0  0  0  0  0  0  0  0  0  0
   20.6852    7.0991   -3.7517 H   0  0  0  0  0  0  0  0  0  0  0  0
   20.5749    5.8688   -5.7707 H   0  0  0  0  0  0  0  0  0  0  0  0
   19.8909    4.4866   -4.9020 H   0  0  0  0  0  0  0  0  0  0  0  0
  1  2  2  0
  2  3  2  0
  2  4  1  0
  2  6  1  0
  4  5  1  0
  4  7  1  0
  4  8  1  0
  5  6  1  0
  5  9  1  0
  5 10  1  0
  6 11  1  0
  6 12  1  0
M  END
> <intraLJ>
-0.830    

> <intraEL>
0.015     

> <intraDihe>
20.344    

> <interLJ>
0.000     

> <interEJ>
0.000     

> <gridLJ>
-3.050    

> <gridEL>
0.000     

> <totalE>
16.478    

> <LGFE>
-3.050  

> <LE>
-0.508  

> <SMILES>
O=S1(=O)CCC1

> <atom.dprop.GFE>
-0.77 0 -0.96 -0.51 -0.42 -0.39 0 0 0 0 0 0

> <atom.prop.CLASS>
GENA NCLA GENA PRPC PRPC PRPC NCLA NCLA NCLA NCLA NCLA NCLA

$$$$
22
     RDKit          3D

 12 12  0  0  0  0  0  0  0  0999 V2000
  -41.0642    7.9342   20.1065 O   0  0  0  0  0  0  0  0  0  0  0  0
  -40.2904    7.0076   20.8623 S   0  0  0  0  0  0  0  0  0  0  0  0
  -39.7353    7.4009   22.1136 O   0  0  0  0  0  0  0  0  0  0  0  0
  -41.0783    5.4585   20.9734 C   0  0  0  0  0  0  0  0  0  0  0  0
  -39.9267    4.8065   20.0354 C   0  0  0  0  0  0  0  0  0  0  0  0
  -39.1123    6.1998   19.8674 C   0  0  0  0  0  0  0  0  0  0  0  0
  -42.0293    5.3161   20.4785 H   0  0  0  0  0  0  0  0  0  0  0  0
  -41.0746    4.9331   21.9181 H   0  0  0  0  0  0  0  0  0  0  0  0
  -40.3186    4.4445   19.0946 H   0  0  0  0  0  0  0  0  0  0  0  0
  -39.3497    4.0549   20.5569 H   0  0  0  0  0  0  0  0  0  0  0  0
  -38.1118    6.0492   20.2527 H   0  0  0  0  0  0  0  0  0  0  0  0
  -39.0658    6.4326   18.8119 H   0  0  0  0  0  0  0  0  0  0  0  0
  1  2  2  0
  2  3  2  0
  2  4  1  0
  2  6  1  0
  4  5  1  0
  4  7  1  0
  4  8  1  0
  5  6  1  0
  5  9  1  0
  5 10  1  0
  6 11  1  0
  6 12  1  0
M  END
> <intraLJ>
-0.830    

> <intraEL>
0.015     

> <intraDihe>
20.344    

> <interLJ>
0.000     

> <interEJ>
0.000     

> <gridLJ>
-3.048    

> <gridEL>
0.000     

> <totalE>
16.480    

> <LGFE>
-3.048  

> <LE>
-0.508  

> <SMILES>
O=S1(=O)CCC1

> <atom.dprop.GFE>
-0.76 0 -0.7 -0.51 -0.46 -0.61 0 0 0 0 0 0

> <atom.prop.CLASS>
GENA NCLA GENA PRPC PRPC PRPC NCLA NCLA NCLA NCLA NCLA NCLA

$$$$
22
     RDKit          3D

 12 12  0  0  0  0  0  0  0  0999 V2000
  -30.0962   -9.1270   23.3349 O   0  0  0  0  0  0  0  0  0  0  0  0
  -29.8682   -9.9238   24.4933 S   0  0  0  0  0  0  0  0  0  0  0  0
  -30.9141  -10.7415   25.0092 O   0  0  0  0  0  0  0  0  0  0  0  0
  -28.3695  -10.8032   24.3787 C   0  0  0  0  0  0  0  0  0  0  0  0
  -27.7435   -9.8889   25.5633 C   0  0  0  0  0  0  0  0  0  0  0  0
  -29.0929   -9.0083   25.7544 C   0  0  0  0  0  0  0  0  0  0  0  0
  -27.7518  -10.6763   23.5001 H   0  0  0  0  0  0  0  0  0  0  0  0
  -28.3384  -11.8340   24.7026 H   0  0  0  0  0  0  0  0  0  0  0  0
  -26.9084   -9.2912   25.2239 H   0  0  0  0  0  0  0  0  0  0  0  0
  -27.5037  -10.4676   26.4450 H   0  0  0  0  0  0  0  0  0  0  0  0
  -29.4284   -9.1306   26.7766 H   0  0  0  0  0  0  0  0  0  0  0  0
  -28.8417   -7.9715   25.5743 H   0  0  0  0  0  0  0  0  0  0  0  0
  1  2  2  0
  2  3  2  0
  2  4  1  0
  2  6  1  0
  4  5  1  0
  4  7  1  0
  4  8  1  0
  5  6  1  0
  5  9  1  0
  5 10  1  0
  6 11  1  0
  6 12  1  0
M  END
> <intraLJ>
-0.830    

> <intraEL>
0.015     

> <intraDihe>
20.344    

> <interLJ>
0.000     

> <interEJ>
0.000     

> <gridLJ>
-3.024    

> <gridEL>
0.000     

> <totalE>
16.504    

> <LGFE>
-3.024  

> <LE>
-0.504  

> <SMILES>
O=S1(=O)CCC1

> <atom.dprop.GFE>
-0.85 0 -0.86 -0.48 -0.38 -0.45 0 0 0 0 0 0

> <atom.prop.CLASS>
GENA NCLA GENA PRPC PRPC PRPC NCLA NCLA NCLA NCLA NCLA NCLA

$$$$
22
     RDKit          3D

 12 12  0  0  0  0  0  0  0  0999 V2000
  -25.0070    5.0958    5.4034 O   0  0  0  0  0  0  0  0  0  0  0  0
  -24.9944    3.6968    5.1362 S   0  0  0  0  0  0  0  0  0  0  0  0
  -24.0285    3.1538    4.2414 O   0  0  0  0  0  0  0  0  0  0  0  0
  -25.0978    2.7654    6.6041 C   0  0  0  0  0  0  0  0  0  0  0  0
  -26.5842    2.2702    6.1840 C   0  0  0  0  0  0  0  0  0  0  0  0
  -26.5922    3.0996    4.7895 C   0  0  0  0  0  0  0  0  0  0  0  0
  -25.1757    3.2831    7.5504 H   0  0  0  0  0  0  0  0  0  0  0  0
  -24.4747    1.8892    6.7160 H   0  0  0  0  0  0  0  0  0  0  0  0
  -27.3431    2.6174    6.8720 H   0  0  0  0  0  0  0  0  0  0  0  0
  -26.6310    1.2014    6.0253 H   0  0  0  0  0  0  0  0  0  0  0  0
  -26.7261    2.3913    3.9816 H   0  0  0  0  0  0  0  0  0  0  0  0
  -27.4282    3.7858    4.8155 H   0  0  0  0  0  0  0  0  0  0  0  0
  1  2  2  0
  2  3  2  0
  2  4  1  0
  2  6  1  0
  4  5  1  0
  4  7  1  0
  4  8  1  0
  5  6  1  0
  5  9  1  0
  5 10  1  0
  6 11  1  0
  6 12  1  0
M  END
> <intraLJ>
-0.830    

> <intraEL>
0.015     

> <intraDihe>
20.344    

> <interLJ>
0.000     

> <interEJ>
0.000     

> <gridLJ>
-2.948    

> <gridEL>
0.000     

> <totalE>
16.581    

> <LGFE>
-2.948  

> <LE>
-0.491  

> <SMILES>
O=S1(=O)CCC1

> <atom.dprop.GFE>
-0.84 0 -1.2 -0.29 -0.36 -0.3 0 0 0 0 0 0

> <atom.prop.CLASS>
GENA NCLA GENA PRPC PRPC PRPC NCLA NCLA NCLA NCLA NCLA NCLA

$$$$
22
     RDKit          3D

 12 12  0  0  0  0  0  0  0  0999 V2000
  -15.5231   11.0604   -6.8133 O   0  0  0  0  0  0  0  0  0  0  0  0
  -16.2323    9.8585   -6.5284 S   0  0  0  0  0  0  0  0  0  0  0  0
  -16.9132    9.1715   -7.5738 O   0  0  0  0  0  0  0  0  0  0  0  0
  -15.2774    8.7667   -5.5646 C   0  0  0  0  0  0  0  0  0  0  0  0
  -16.2783    9.0005   -4.3097 C   0  0  0  0  0  0  0  0  0  0  0  0
  -17.2372   10.0303   -5.1175 C   0  0  0  0  0  0  0  0  0  0  0  0
  -14.2849    9.0676   -5.2579 H   0  0  0  0  0  0  0  0  0  0  0  0
  -15.2833    7.7123   -5.8027 H   0  0  0  0  0  0  0  0  0  0  0  0
  -15.7837    9.4723   -3.4715 H   0  0  0  0  0  0  0  0  0  0  0  0
  -16.7971    8.0953   -4.0247 H   0  0  0  0  0  0  0  0  0  0  0  0
  -18.2370    9.6149   -5.1291 H   0  0  0  0  0  0  0  0  0  0  0  0
  -17.2391   10.9713   -4.5836 H   0  0  0  0  0  0  0  0  0  0  0  0
  1  2  2  0
  2  3  2  0
  2  4  1  0
  2  6  1  0
  4  5  1  0
  4  7  1  0
  4  8  1  0
  5  6  1  0
  5  9  1  0
  5 10  1  0
  6 11  1  0
  6 12  1  0
M  END
> <intraLJ>
-0.830    

> <intraEL>
0.015     

> <intraDihe>
20.344    

> <interLJ>
0.000     

> <interEJ>
0.000     

> <gridLJ>
-3.013    

> <gridEL>
0.000     

> <totalE>
16.516    

> <LGFE>
-3.013  

> <LE>
-0.502  

> <SMILES>
O=S1(=O)CCC1

> <atom.dprop.GFE>
-1.3 0 -1.1 -0.045 -0.34 -0.14 0 0 0 0 0 0

> <atom.prop.CLASS>
GENA NCLA GENA PRPC PRPC PRPC NCLA NCLA NCLA NCLA NCLA NCLA

$$$$
22
     RDKit          3D

 12 12  0  0  0  0  0  0  0  0999 V2000
  -21.1018    6.8476   -8.8292 O   0  0  0  0  0  0  0  0  0  0  0  0
  -21.3282    5.6830   -9.6173 S   0  0  0  0  0  0  0  0  0  0  0  0
  -20.7292    4.4459   -9.2438 O   0  0  0  0  0  0  0  0  0  0  0  0
  -23.0168    5.4853   -9.9944 C   0  0  0  0  0  0  0  0  0  0  0  0
  -22.7050    5.8047  -11.5538 C   0  0  0  0  0  0  0  0  0  0  0  0
  -21.1135    6.0094  -11.3136 C   0  0  0  0  0  0  0  0  0  0  0  0
  -23.7241    6.2225   -9.6396 H   0  0  0  0  0  0  0  0  0  0  0  0
  -23.4563    4.4992   -9.9384 H   0  0  0  0  0  0  0  0  0  0  0  0
  -23.1885    6.7110  -11.8926 H   0  0  0  0  0  0  0  0  0  0  0  0
  -22.9173    4.9607  -12.1959 H   0  0  0  0  0  0  0  0  0  0  0  0
  -20.5887    5.2876  -11.9266 H   0  0  0  0  0  0  0  0  0  0  0  0
  -20.8557    7.0118  -11.6286 H   0  0  0  0  0  0  0  0  0  0  0  0
  1  2  2  0
  2  3  2  0
  2  4  1  0
  2  6  1  0
  4  5  1  0
  4  7  1  0
  4  8  1  0
  5  6  1  0
  5  9  1  0
  5 10  1  0
  6 11  1  0
  6 12  1  0
M  END
> <intraLJ>
-0.830    

> <intraEL>
0.015     

> <intraDihe>
20.344    

> <interLJ>
0.000     

> <interEJ>
0.000     

> <gridLJ>
-2.872    

> <gridEL>
0.000     

> <totalE>
16.657    

> <LGFE>
-2.872  

> <LE>
-0.479  

> <SMILES>
O=S1(=O)CCC1

> <atom.dprop.GFE>
-0.91 0 -0.79 -0.44 -0.34 -0.4 0 0 0 0 0 0

> <atom.prop.CLASS>
GENA NCLA GENA PRPC PRPC PRPC NCLA NCLA NCLA NCLA NCLA NCLA

$$$$
22
     RDKit          3D

 12 12  0  0  0  0  0  0  0  0999 V2000
   -6.1696    9.1719   -7.6570 O   0  0  0  0  0  0  0  0  0  0  0  0
   -6.4843   10.5245   -7.9735 S   0  0  0  0  0  0  0  0  0  0  0  0
   -6.2333   11.5531   -7.0208 O   0  0  0  0  0  0  0  0  0  0  0  0
   -5.8994   10.9633   -9.5540 C   0  0  0  0  0  0  0  0  0  0  0  0
   -7.4269   11.0638  -10.0904 C   0  0  0  0  0  0  0  0  0  0  0  0
   -8.0782   10.6647   -8.6588 C   0  0  0  0  0  0  0  0  0  0  0  0
   -5.3869   10.2201  -10.1495 H   0  0  0  0  0  0  0  0  0  0  0  0
   -5.4339   11.9289   -9.6932 H   0  0  0  0  0  0  0  0  0  0  0  0
   -7.6426   10.3322  -10.8572 H   0  0  0  0  0  0  0  0  0  0  0  0
   -7.6898   12.0679  -10.3944 H   0  0  0  0  0  0  0  0  0  0  0  0
   -8.7169   11.4805   -8.3445 H   0  0  0  0  0  0  0  0  0  0  0  0
   -8.6710    9.7709   -8.8007 H   0  0  0  0  0  0  0  0  0  0  0  0
  1  2  2  0
  2  3  2  0
  2  4  1  0
  2  6  1  0
  4  5  1  0
  4  7  1  0
  4  8  1  0
  5  6  1  0
  5  9  1  0
  5 10  1  0
  6 11  1  0
  6 12  1  0
M  END
> <intraLJ>
-0.830    

> <intraEL>
0.015     

> <intraDihe>
20.344    

> <interLJ>
0.000     

> <interEJ>
0.000     

> <gridLJ>
-2.857    

> <gridEL>
0.000     

> <totalE>
16.671    

> <LGFE>
-2.857  

> <LE>
-0.476  

> <SMILES>
O=S1(=O)CCC1

> <atom.dprop.GFE>
-0.78 0 -0.79 -0.43 -0.43 -0.43 0 0 0 0 0 0

> <atom.prop.CLASS>
GENA NCLA GENA PRPC PRPC PRPC NCLA NCLA NCLA NCLA NCLA NCLA

$$$$
22
     RDKit          3D

 12 12  0  0  0  0  0  0  0  0999 V2000
  -17.1230   -3.7817   26.2045 O   0  0  0  0  0  0  0  0  0  0  0  0
  -18.1598   -4.7579   26.1738 S   0  0  0  0  0  0  0  0  0  0  0  0
  -19.1548   -4.7045   25.1561 O   0  0  0  0  0  0  0  0  0  0  0  0
  -17.5257   -6.3690   26.3612 C   0  0  0  0  0  0  0  0  0  0  0  0
  -18.2280   -6.4746   27.8196 C   0  0  0  0  0  0  0  0  0  0  0  0
  -18.8681   -4.9854   27.7475 C   0  0  0  0  0  0  0  0  0  0  0  0
  -16.4609   -6.5022   26.4953 H   0  0  0  0  0  0  0  0  0  0  0  0
  -17.9196   -7.1643   25.7441 H   0  0  0  0  0  0  0  0  0  0  0  0
  -17.5050   -6.5720   28.6181 H   0  0  0  0  0  0  0  0  0  0  0  0
  -18.9861   -7.2452   27.8550 H   0  0  0  0  0  0  0  0  0  0  0  0
  -19.9432   -5.0806   27.8325 H   0  0  0  0  0  0  0  0  0  0  0  0
  -18.4846   -4.4177   28.5848 H   0  0  0  0  0  0  0  0  0  0  0  0
  1  2  2  0
  2  3  2  0
  2  4  1  0
  2  6  1  0
  4  5  1  0
  4  7  1  0
  4  8  1  0
  5  6  1  0
  5  9  1  0
  5 10  1  0
  6 11  1  0
  6 12  1  0
M  END
> <intraLJ>
-0.830    

> <intraEL>
0.015     

> <intraDihe>
20.344    

> <interLJ>
0.000     

> <interEJ>
0.000     

> <gridLJ>
-2.826    

> <gridEL>
0.000     

> <totalE>
16.703    

> <LGFE>
-2.826  

> <LE>
-0.471  

> <SMILES>
O=S1(=O)CCC1

> <atom.dprop.GFE>
-0.71 0 -1.5 -0.14 -0.25 -0.23 0 0 0 0 0 0

> <atom.prop.CLASS>
GENA NCLA GENA PRPC PRPC PRPC NCLA NCLA NCLA NCLA NCLA NCLA

$$$$
22
     RDKit          3D

 12 12  0  0  0  0  0  0  0  0999 V2000
    2.0034    6.1737  -28.0233 O   0  0  0  0  0  0  0  0  0  0  0  0
    2.3958    7.3721  -27.3610 S   0  0  0  0  0  0  0  0  0  0  0  0
    3.4963    8.1288  -27.8560 O   0  0  0  0  0  0  0  0  0  0  0  0
    1.0253    8.3903  -27.0179 C   0  0  0  0  0  0  0  0  0  0  0  0
    1.2139    8.1082  -25.4318 C   0  0  0  0  0  0  0  0  0  0  0  0
    2.5019    7.1434  -25.6387 C   0  0  0  0  0  0  0  0  0  0  0  0
    0.0370    8.0534  -27.2996 H   0  0  0  0  0  0  0  0  0  0  0  0
    1.1086    9.4561  -27.1783 H   0  0  0  0  0  0  0  0  0  0  0  0
    0.3714    7.5814  -25.0046 H   0  0  0  0  0  0  0  0  0  0  0  0
    1.4591    9.0065  -24.8816 H   0  0  0  0  0  0  0  0  0  0  0  0
    3.3340    7.5786  -25.0998 H   0  0  0  0  0  0  0  0  0  0  0  0
    2.2626    6.1748  -25.2203 H   0  0  0  0  0  0  0  0  0  0  0  0
  1  2  2  0
  2  3  2  0
  2  4  1  0
  2  6  1  0
  4  5  1  0
  4  7  1  0
  4  8  1  0
  5  6  1  0
  5  9  1  0
  5 10  1  0
  6 11  1  0
  6 12  1  0
M  END
> <intraLJ>
-0.830    

> <intraEL>
0.015     

> <intraDihe>
20.344    

> <interLJ>
0.000     

> <interEJ>
0.000     

> <gridLJ>
-2.827    

> <gridEL>
0.000     

> <totalE>
16.701    

> <LGFE>
-2.827  

> <LE>
-0.471  

> <SMILES>
O=S1(=O)CCC1

> <atom.dprop.GFE>
-0.98 0 -1.3 0.021 -0.24 -0.29 0 0 0 0 0 0

> <atom.prop.CLASS>
GENA NCLA GENA PRPC PRPC PRPC NCLA NCLA NCLA NCLA NCLA NCLA

$$$$
22
     RDKit          3D

 12 12  0  0  0  0  0  0  0  0999 V2000
  -16.1447   -6.4745   -8.5329 O   0  0  0  0  0  0  0  0  0  0  0  0
  -16.8717   -7.3189   -7.6456 S   0  0  0  0  0  0  0  0  0  0  0  0
  -18.0765   -6.8503   -7.0478 O   0  0  0  0  0  0  0  0  0  0  0  0
  -17.0673   -8.9193   -8.3037 C   0  0  0  0  0  0  0  0  0  0  0  0
  -16.0743   -9.5082   -7.1641 C   0  0  0  0  0  0  0  0  0  0  0  0
  -15.8239   -8.0625   -6.4713 C   0  0  0  0  0  0  0  0  0  0  0  0
  -16.6362   -9.1467   -9.2691 H   0  0  0  0  0  0  0  0  0  0  0  0
  -18.0217   -9.4167   -8.2023 H   0  0  0  0  0  0  0  0  0  0  0  0
  -15.1684   -9.9245   -7.5833 H   0  0  0  0  0  0  0  0  0  0  0  0
  -16.5758  -10.1993   -6.5004 H   0  0  0  0  0  0  0  0  0  0  0  0
  -16.1493   -8.1264   -5.4406 H   0  0  0  0  0  0  0  0  0  0  0  0
  -14.7625   -7.8561   -6.5068 H   0  0  0  0  0  0  0  0  0  0  0  0
  1  2  2  0
  2  3  2  0
  2  4  1  0
  2  6  1  0
  4  5  1  0
  4  7  1  0
  4  8  1  0
  5  6  1  0
  5  9  1  0
  5 10  1  0
  6 11  1  0
  6 12  1  0
M  END
> <intraLJ>
-0.830    

> <intraEL>
0.015     

> <intraDihe>
20.344    

> <interLJ>
0.000     

> <interEJ>
0.000     

> <gridLJ>
-2.746    

> <gridEL>
0.000     

> <totalE>
16.783    

> <LGFE>
-2.746  

> <LE>
-0.458  

> <SMILES>
O=S1(=O)CCC1

> <atom.dprop.GFE>
-1.2 0 -1 -0.22 -0.18 -0.099 0 0 0 0 0 0

> <atom.prop.CLASS>
GENA NCLA GENA PRPC PRPC PRPC NCLA NCLA NCLA NCLA NCLA NCLA

$$$$
22
     RDKit          3D

 12 12  0  0  0  0  0  0  0  0999 V2000
    1.9348   -0.3341  -37.5785 O   0  0  0  0  0  0  0  0  0  0  0  0
    2.6828    0.8654  -37.7531 S   0  0  0  0  0  0  0  0  0  0  0  0
    3.8860    1.0648  -37.0174 O   0  0  0  0  0  0  0  0  0  0  0  0
    2.8964    1.2451  -39.4392 C   0  0  0  0  0  0  0  0  0  0  0  0
    1.9233    2.5320  -39.2717 C   0  0  0  0  0  0  0  0  0  0  0  0
    1.6575    2.2707  -37.6925 C   0  0  0  0  0  0  0  0  0  0  0  0
    2.4597    0.5937  -40.1838 H   0  0  0  0  0  0  0  0  0  0  0  0
    3.8591    1.5986  -39.7809 H   0  0  0  0  0  0  0  0  0  0  0  0
    1.0198    2.4438  -39.8597 H   0  0  0  0  0  0  0  0  0  0  0  0
    2.4413    3.4643  -39.4512 H   0  0  0  0  0  0  0  0  0  0  0  0
    1.9934    3.1449  -37.1492 H   0  0  0  0  0  0  0  0  0  0  0  0
    0.5928    2.1403  -37.5516 H   0  0  0  0  0  0  0  0  0  0  0  0
  1  2  2  0
  2  3  2  0
  2  4  1  0
  2  6  1  0
  4  5  1  0
  4  7  1  0
  4  8  1  0
  5  6  1  0
  5  9  1  0
  5 10  1  0
  6 11  1  0
  6 12  1  0
M  END
> <intraLJ>
-0.830    

> <intraEL>
0.015     

> <intraDihe>
20.344    

> <interLJ>
0.000     

> <interEJ>
0.000     

> <gridLJ>
-2.606    

> <gridEL>
0.000     

> <totalE>
16.923    

> <LGFE>
-2.606  

> <LE>
-0.434  

> <SMILES>
O=S1(=O)CCC1

> <atom.dprop.GFE>
-0.58 0 -0.82 -0.42 -0.46 -0.33 0 0 0 0 0 0

> <atom.prop.CLASS>
GENA NCLA GENA PRPC PRPC PRPC NCLA NCLA NCLA NCLA NCLA NCLA

$$$$
22
     RDKit          3D

 12 12  0  0  0  0  0  0  0  0999 V2000
  -13.5296    2.0403   21.2445 O   0  0  0  0  0  0  0  0  0  0  0  0
  -13.8185    0.7308   20.7643 S   0  0  0  0  0  0  0  0  0  0  0  0
  -12.9839    0.1379   19.7741 O   0  0  0  0  0  0  0  0  0  0  0  0
  -14.1380   -0.3731   22.0727 C   0  0  0  0  0  0  0  0  0  0  0  0
  -15.6918   -0.4634   21.6159 C   0  0  0  0  0  0  0  0  0  0  0  0
  -15.5040    0.5549   20.3667 C   0  0  0  0  0  0  0  0  0  0  0  0
  -14.1119   -0.0047   23.0891 H   0  0  0  0  0  0  0  0  0  0  0  0
  -13.7215   -1.3699   22.0335 H   0  0  0  0  0  0  0  0  0  0  0  0
  -16.3647   -0.0717   22.3667 H   0  0  0  0  0  0  0  0  0  0  0  0
  -15.9680   -1.4587   21.2952 H   0  0  0  0  0  0  0  0  0  0  0  0
  -15.7797    0.0271   19.4625 H   0  0  0  0  0  0  0  0  0  0  0  0
  -16.1711    1.3932   20.5178 H   0  0  0  0  0  0  0  0  0  0  0  0
  1  2  2  0
  2  3  2  0
  2  4  1  0
  2  6  1  0
  4  5  1  0
  4  7  1  0
  4  8  1  0
  5  6  1  0
  5  9  1  0
  5 10  1  0
  6 11  1  0
  6 12  1  0
M  END
> <intraLJ>
-0.830    

> <intraEL>
0.015     

> <intraDihe>
20.344    

> <interLJ>
0.000     

> <interEJ>
0.000     

> <gridLJ>
-2.637    

> <gridEL>
0.000     

> <totalE>
16.892    

> <LGFE>
-2.637  

> <LE>
-0.439  

> <SMILES>
O=S1(=O)CCC1

> <atom.dprop.GFE>
-0.52 0 -1 -0.33 -0.47 -0.28 0 0 0 0 0 0

> <atom.prop.CLASS>
GENA NCLA GENA PRPC PRPC PRPC NCLA NCLA NCLA NCLA NCLA NCLA

$$$$
22
     RDKit          3D

 12 12  0  0  0  0  0  0  0  0999 V2000
   14.9479   17.0833  -27.8548 O   0  0  0  0  0  0  0  0  0  0  0  0
   14.7731   16.2196  -28.9738 S   0  0  0  0  0  0  0  0  0  0  0  0
   15.6977   15.1611  -29.2045 O   0  0  0  0  0  0  0  0  0  0  0  0
   13.1266   15.6671  -29.1030 C   0  0  0  0  0  0  0  0  0  0  0  0
   12.9390   16.5450  -30.4540 C   0  0  0  0  0  0  0  0  0  0  0  0
   14.4564   17.1191  -30.4301 C   0  0  0  0  0  0  0  0  0  0  0  0
   12.3990   16.0106  -28.3805 H   0  0  0  0  0  0  0  0  0  0  0  0
   12.9370   14.6320  -29.3502 H   0  0  0  0  0  0  0  0  0  0  0  0
   12.2024   17.3282  -30.3366 H   0  0  0  0  0  0  0  0  0  0  0  0
   12.7482   15.9276  -31.3213 H   0  0  0  0  0  0  0  0  0  0  0  0
   14.9407   16.8186  -31.3506 H   0  0  0  0  0  0  0  0  0  0  0  0
   14.4029   18.1986  -30.3813 H   0  0  0  0  0  0  0  0  0  0  0  0
  1  2  2  0
  2  3  2  0
  2  4  1  0
  2  6  1  0
  4  5  1  0
  4  7  1  0
  4  8  1  0
  5  6  1  0
  5  9  1  0
  5 10  1  0
  6 11  1  0
  6 12  1  0
M  END
> <intraLJ>
-0.830    

> <intraEL>
0.015     

> <intraDihe>
20.344    

> <interLJ>
0.000     

> <interEJ>
0.000     

> <gridLJ>
-2.600    

> <gridEL>
0.000     

> <totalE>
16.928    

> <LGFE>
-2.600  

> <LE>
-0.433  

> <SMILES>
O=S1(=O)CCC1

> <atom.dprop.GFE>
-0.94 0 -1.1 -0.24 -0.1 -0.2 0 0 0 0 0 0

> <atom.prop.CLASS>
GENA NCLA GENA PRPC PRPC PRPC NCLA NCLA NCLA NCLA NCLA NCLA

$$$$
22
     RDKit          3D

 12 12  0  0  0  0  0  0  0  0999 V2000
    2.5916    4.0536  -40.6438 O   0  0  0  0  0  0  0  0  0  0  0  0
    2.3666    3.0535  -39.6549 S   0  0  0  0  0  0  0  0  0  0  0  0
    1.2572    3.1683  -38.7691 O   0  0  0  0  0  0  0  0  0  0  0  0
    2.4811    1.4518  -40.3288 C   0  0  0  0  0  0  0  0  0  0  0  0
    3.8418    1.1946  -39.4842 C   0  0  0  0  0  0  0  0  0  0  0  0
    3.8304    2.6645  -38.7970 C   0  0  0  0  0  0  0  0  0  0  0  0
    2.7158    1.3391  -41.3784 H   0  0  0  0  0  0  0  0  0  0  0  0
    1.7593    0.7037  -40.0324 H   0  0  0  0  0  0  0  0  0  0  0  0
    4.7014    1.0477  -40.1239 H   0  0  0  0  0  0  0  0  0  0  0  0
    3.7297    0.4017  -38.7573 H   0  0  0  0  0  0  0  0  0  0  0  0
    3.7919    2.5299  -37.7234 H   0  0  0  0  0  0  0  0  0  0  0  0
    4.7496    3.1660  -39.0693 H   0  0  0  0  0  0  0  0  0  0  0  0
  1  2  2  0
  2  3  2  0
  2  4  1  0
  2  6  1  0
  4  5  1  0
  4  7  1  0
  4  8  1  0
  5  6  1  0
  5  9  1  0
  5 10  1  0
  6 11  1  0
  6 12  1  0
M  END
> <intraLJ>
-0.830    

> <intraEL>
0.015     

> <intraDihe>
20.344    

> <interLJ>
0.000     

> <interEJ>
0.000     

> <gridLJ>
-2.450    

> <gridEL>
0.000     

> <totalE>
17.079    

> <LGFE>
-2.450  

> <LE>
-0.408  

> <SMILES>
O=S1(=O)CCC1

> <atom.dprop.GFE>
-0.74 0 -0.56 -0.34 -0.39 -0.41 0 0 0 0 0 0

> <atom.prop.CLASS>
GENA NCLA GENA PRPC PRPC PRPC NCLA NCLA NCLA NCLA NCLA NCLA

$$$$
22
     RDKit          3D

 12 12  0  0  0  0  0  0  0  0999 V2000
  -28.6665   15.1240   18.3028 O   0  0  0  0  0  0  0  0  0  0  0  0
  -28.4565   14.1457   17.2892 S   0  0  0  0  0  0  0  0  0  0  0  0
  -27.3769   13.2239   17.4054 O   0  0  0  0  0  0  0  0  0  0  0  0
  -29.9399   13.3392   16.8629 C   0  0  0  0  0  0  0  0  0  0  0  0
  -29.9075   14.0517   15.4060 C   0  0  0  0  0  0  0  0  0  0  0  0
  -28.5257   14.8501   15.6990 C   0  0  0  0  0  0  0  0  0  0  0  0
  -30.8573   13.6320   17.3550 H   0  0  0  0  0  0  0  0  0  0  0  0
  -29.9317   12.2691   16.7099 H   0  0  0  0  0  0  0  0  0  0  0  0
  -30.7440   14.7209   15.2567 H   0  0  0  0  0  0  0  0  0  0  0  0
  -29.8046   13.3362   14.6016 H   0  0  0  0  0  0  0  0  0  0  0  0
  -27.8005   14.5445   14.9554 H   0  0  0  0  0  0  0  0  0  0  0  0
  -28.7259   15.9088   15.6001 H   0  0  0  0  0  0  0  0  0  0  0  0
  1  2  2  0
  2  3  2  0
  2  4  1  0
  2  6  1  0
  4  5  1  0
  4  7  1  0
  4  8  1  0
  5  6  1  0
  5  9  1  0
  5 10  1  0
  6 11  1  0
  6 12  1  0
M  END
> <intraLJ>
-0.830    

> <intraEL>
0.015     

> <intraDihe>
20.344    

> <interLJ>
0.000     

> <interEJ>
0.000     

> <gridLJ>
-2.418    

> <gridEL>
0.000     

> <totalE>
17.111    

> <LGFE>
-2.418  

> <LE>
-0.403  

> <SMILES>
O=S1(=O)CCC1

> <atom.dprop.GFE>
-0.81 0 -0.79 -0.32 -0.25 -0.25 0 0 0 0 0 0

> <atom.prop.CLASS>
GENA NCLA GENA PRPC PRPC PRPC NCLA NCLA NCLA NCLA NCLA NCLA

$$$$
22
     RDKit          3D

 12 12  0  0  0  0  0  0  0  0999 V2000
    3.8414    2.0914   -1.6477 O   0  0  0  0  0  0  0  0  0  0  0  0
    2.7956    1.1280   -1.5656 S   0  0  0  0  0  0  0  0  0  0  0  0
    2.6238    0.1760   -2.6110 O   0  0  0  0  0  0  0  0  0  0  0  0
    2.7477    0.3694    0.0013 C   0  0  0  0  0  0  0  0  0  0  0  0
    1.3389    1.1094    0.3155 C   0  0  0  0  0  0  0  0  0  0  0  0
    1.2832    1.8652   -1.1192 C   0  0  0  0  0  0  0  0  0  0  0  0
    3.4592    0.6765    0.7556 H   0  0  0  0  0  0  0  0  0  0  0  0
    2.5843   -0.6973    0.0644 H   0  0  0  0  0  0  0  0  0  0  0  0
    1.4140    1.8031    1.1419 H   0  0  0  0  0  0  0  0  0  0  0  0
    0.5257    0.4073    0.4406 H   0  0  0  0  0  0  0  0  0  0  0  0
    0.3769    1.5553   -1.6239 H   0  0  0  0  0  0  0  0  0  0  0  0
    1.2512    2.9305   -0.9328 H   0  0  0  0  0  0  0  0  0  0  0  0
  1  2  2  0
  2  3  2  0
  2  4  1  0
  2  6  1  0
  4  5  1  0
  4  7  1  0
  4  8  1  0
  5  6  1  0
  5  9  1  0
  5 10  1  0
  6 11  1  0
  6 12  1  0
M  END
> <intraLJ>
-0.830    

> <intraEL>
0.015     

> <intraDihe>
20.344    

> <interLJ>
0.000     

> <interEJ>
0.000     

> <gridLJ>
-2.412    

> <gridEL>
0.000     

> <totalE>
17.116    

> <LGFE>
-2.412  

> <LE>
-0.402  

> <SMILES>
O=S1(=O)CCC1

> <atom.dprop.GFE>
-0.97 0 -0.79 -0.17 -0.26 -0.22 0 0 0 0 0 0

> <atom.prop.CLASS>
GENA NCLA GENA PRPC PRPC PRPC NCLA NCLA NCLA NCLA NCLA NCLA

$$$$
22
     RDKit          3D

 12 12  0  0  0  0  0  0  0  0999 V2000
  -38.7982   -1.8614   26.5973 O   0  0  0  0  0  0  0  0  0  0  0  0
  -40.1960   -1.5920   26.6456 S   0  0  0  0  0  0  0  0  0  0  0  0
  -41.0798   -2.2661   25.7551 O   0  0  0  0  0  0  0  0  0  0  0  0
  -40.7955   -1.6191   28.2804 C   0  0  0  0  0  0  0  0  0  0  0  0
  -41.0520   -0.0189   28.2119 C   0  0  0  0  0  0  0  0  0  0  0  0
  -40.5145    0.1188   26.6872 C   0  0  0  0  0  0  0  0  0  0  0  0
  -40.1046   -1.8100   29.0902 H   0  0  0  0  0  0  0  0  0  0  0  0
  -41.7421   -2.0991   28.4856 H   0  0  0  0  0  0  0  0  0  0  0  0
  -40.4368    0.5267   28.9145 H   0  0  0  0  0  0  0  0  0  0  0  0
  -42.1001    0.2327   28.3012 H   0  0  0  0  0  0  0  0  0  0  0  0
  -41.3202    0.5194   26.0850 H   0  0  0  0  0  0  0  0  0  0  0  0
  -39.6819    0.8097   26.6892 H   0  0  0  0  0  0  0  0  0  0  0  0
  1  2  2  0
  2  3  2  0
  2  4  1  0
  2  6  1  0
  4  5  1  0
  4  7  1  0
  4  8  1  0
  5  6  1  0
  5  9  1  0
  5 10  1  0
  6 11  1  0
  6 12  1  0
M  END
> <intraLJ>
-0.830    

> <intraEL>
0.015     

> <intraDihe>
20.344    

> <interLJ>
0.000     

> <interEJ>
0.000     

> <gridLJ>
-2.403    

> <gridEL>
0.000     

> <totalE>
17.126    

> <LGFE>
-2.403  

> <LE>
-0.401  

> <SMILES>
O=S1(=O)CCC1

> <atom.dprop.GFE>
-0.67 0 -0.62 -0.34 -0.37 -0.41 0 0 0 0 0 0

> <atom.prop.CLASS>
GENA NCLA GENA PRPC PRPC PRPC NCLA NCLA NCLA NCLA NCLA NCLA

$$$$
22
     RDKit          3D

 12 12  0  0  0  0  0  0  0  0999 V2000
  -25.1339    6.1322   20.7299 O   0  0  0  0  0  0  0  0  0  0  0  0
  -26.2266    5.2187   20.7107 S   0  0  0  0  0  0  0  0  0  0  0  0
  -26.2738    4.1893   19.7275 O   0  0  0  0  0  0  0  0  0  0  0  0
  -26.5671    4.5969   22.3013 C   0  0  0  0  0  0  0  0  0  0  0  0
  -27.9691    5.4126   22.3191 C   0  0  0  0  0  0  0  0  0  0  0  0
  -27.7521    6.0467   20.8414 C   0  0  0  0  0  0  0  0  0  0  0  0
  -25.9733    4.9396   23.1376 H   0  0  0  0  0  0  0  0  0  0  0  0
  -26.7924    3.5461   22.4181 H   0  0  0  0  0  0  0  0  0  0  0  0
  -27.9944    6.1701   23.0907 H   0  0  0  0  0  0  0  0  0  0  0  0
  -28.8262    4.7543   22.3607 H   0  0  0  0  0  0  0  0  0  0  0  0
  -28.5787    5.7295   20.2183 H   0  0  0  0  0  0  0  0  0  0  0  0
  -27.7600    7.1243   20.9375 H   0  0  0  0  0  0  0  0  0  0  0  0
  1  2  2  0
  2  3  2  0
  2  4  1  0
  2  6  1  0
  4  5  1  0
  4  7  1  0
  4  8  1  0
  5  6  1  0
  5  9  1  0
  5 10  1  0
  6 11  1  0
  6 12  1  0
M  END
> <intraLJ>
-0.830    

> <intraEL>
0.015     

> <intraDihe>
20.344    

> <interLJ>
0.000     

> <interEJ>
0.000     

> <gridLJ>
-2.406    

> <gridEL>
0.000     

> <totalE>
17.122    

> <LGFE>
-2.406  

> <LE>
-0.401  

> <SMILES>
O=S1(=O)CCC1

> <atom.dprop.GFE>
-1 0 -0.78 -0.19 -0.072 -0.35 0 0 0 0 0 0

> <atom.prop.CLASS>
GENA NCLA GENA PRPC PRPC PRPC NCLA NCLA NCLA NCLA NCLA NCLA

$$$$
22
     RDKit          3D

 12 12  0  0  0  0  0  0  0  0999 V2000
  -28.4484   14.6969   25.5004 O   0  0  0  0  0  0  0  0  0  0  0  0
  -28.9422   16.0328   25.4907 S   0  0  0  0  0  0  0  0  0  0  0  0
  -29.0489   16.7411   24.2596 O   0  0  0  0  0  0  0  0  0  0  0  0
  -30.3939   16.1839   26.4408 C   0  0  0  0  0  0  0  0  0  0  0  0
  -29.5881   17.0783   27.5280 C   0  0  0  0  0  0  0  0  0  0  0  0
  -28.1826   17.0023   26.7208 C   0  0  0  0  0  0  0  0  0  0  0  0
  -30.7815   15.3123   26.9502 H   0  0  0  0  0  0  0  0  0  0  0  0
  -31.2117   16.7799   26.0605 H   0  0  0  0  0  0  0  0  0  0  0  0
  -29.5320   16.5978   28.4953 H   0  0  0  0  0  0  0  0  0  0  0  0
  -29.9697   18.0883   27.5920 H   0  0  0  0  0  0  0  0  0  0  0  0
  -27.8805   18.0142   26.4822 H   0  0  0  0  0  0  0  0  0  0  0  0
  -27.4491   16.5464   27.3724 H   0  0  0  0  0  0  0  0  0  0  0  0
  1  2  2  0
  2  3  2  0
  2  4  1  0
  2  6  1  0
  4  5  1  0
  4  7  1  0
  4  8  1  0
  5  6  1  0
  5  9  1  0
  5 10  1  0
  6 11  1  0
  6 12  1  0
M  END
> <intraLJ>
-0.830    

> <intraEL>
0.015     

> <intraDihe>
20.344    

> <interLJ>
0.000     

> <interEJ>
0.000     

> <gridLJ>
-2.394    

> <gridEL>
0.000     

> <totalE>
17.135    

> <LGFE>
-2.394  

> <LE>
-0.399  

> <SMILES>
O=S1(=O)CCC1

> <atom.dprop.GFE>
-1 0 -0.56 -0.29 -0.29 -0.25 0 0 0 0 0 0

> <atom.prop.CLASS>
GENA NCLA GENA PRPC PRPC PRPC NCLA NCLA NCLA NCLA NCLA NCLA

$$$$
22
     RDKit          3D

 12 12  0  0  0  0  0  0  0  0999 V2000
  -19.3032   -0.8031   28.3642 O   0  0  0  0  0  0  0  0  0  0  0  0
  -20.4043    0.1000   28.3940 S   0  0  0  0  0  0  0  0  0  0  0  0
  -20.5195    1.1117   27.3981 O   0  0  0  0  0  0  0  0  0  0  0  0
  -21.9123   -0.7391   28.6274 C   0  0  0  0  0  0  0  0  0  0  0  0
  -22.0480   -0.0825   30.1044 C   0  0  0  0  0  0  0  0  0  0  0  0
  -20.6569    0.7449   29.9909 C   0  0  0  0  0  0  0  0  0  0  0  0
  -21.9029   -1.8145   28.7420 H   0  0  0  0  0  0  0  0  0  0  0  0
  -22.7757   -0.4398   28.0499 H   0  0  0  0  0  0  0  0  0  0  0  0
  -22.0200   -0.8262   30.8893 H   0  0  0  0  0  0  0  0  0  0  0  0
  -22.9070    0.5695   30.1862 H   0  0  0  0  0  0  0  0  0  0  0  0
  -20.8851    1.7972   30.1041 H   0  0  0  0  0  0  0  0  0  0  0  0
  -20.0115    0.4227   30.7973 H   0  0  0  0  0  0  0  0  0  0  0  0
  1  2  2  0
  2  3  2  0
  2  4  1  0
  2  6  1  0
  4  5  1  0
  4  7  1  0
  4  8  1  0
  5  6  1  0
  5  9  1  0
  5 10  1  0
  6 11  1  0
  6 12  1  0
M  END
> <intraLJ>
-0.830    

> <intraEL>
0.015     

> <intraDihe>
20.344    

> <interLJ>
0.000     

> <interEJ>
0.000     

> <gridLJ>
-2.389    

> <gridEL>
0.000     

> <totalE>
17.139    

> <LGFE>
-2.389  

> <LE>
-0.398  

> <SMILES>
O=S1(=O)CCC1

> <atom.dprop.GFE>
-0.68 0 -0.8 -0.3 -0.33 -0.28 0 0 0 0 0 0

> <atom.prop.CLASS>
GENA NCLA GENA PRPC PRPC PRPC NCLA NCLA NCLA NCLA NCLA NCLA

$$$$
22
     RDKit          3D

 12 12  0  0  0  0  0  0  0  0999 V2000
  -19.6461    8.6758   -5.7771 O   0  0  0  0  0  0  0  0  0  0  0  0
  -19.8395    7.6075   -4.8552 S   0  0  0  0  0  0  0  0  0  0  0  0
  -21.1391    7.0540   -4.6729 O   0  0  0  0  0  0  0  0  0  0  0  0
  -18.6394    6.3622   -5.0599 C   0  0  0  0  0  0  0  0  0  0  0  0
  -17.9940    6.7492   -3.6230 C   0  0  0  0  0  0  0  0  0  0  0  0
  -19.0648    7.9327   -3.3307 C   0  0  0  0  0  0  0  0  0  0  0  0
  -17.8735    6.4894   -5.8127 H   0  0  0  0  0  0  0  0  0  0  0  0
  -18.9445    5.3259   -5.0191 H   0  0  0  0  0  0  0  0  0  0  0  0
  -16.9834    7.1237   -3.7135 H   0  0  0  0  0  0  0  0  0  0  0  0
  -18.0707    5.9415   -2.9079 H   0  0  0  0  0  0  0  0  0  0  0  0
  -19.5858    7.6911   -2.4129 H   0  0  0  0  0  0  0  0  0  0  0  0
  -18.5144    8.8558   -3.2059 H   0  0  0  0  0  0  0  0  0  0  0  0
  1  2  2  0
  2  3  2  0
  2  4  1  0
  2  6  1  0
  4  5  1  0
  4  7  1  0
  4  8  1  0
  5  6  1  0
  5  9  1  0
  5 10  1  0
  6 11  1  0
  6 12  1  0
M  END
> <intraLJ>
-0.830    

> <intraEL>
0.015     

> <intraDihe>
20.344    

> <interLJ>
0.000     

> <interEJ>
0.000     

> <gridLJ>
-2.373    

> <gridEL>
0.000     

> <totalE>
17.156    

> <LGFE>
-2.373  

> <LE>
-0.395  

> <SMILES>
O=S1(=O)CCC1

> <atom.dprop.GFE>
-0.57 0 -0.76 -0.13 -0.58 -0.34 0 0 0 0 0 0

> <atom.prop.CLASS>
GENA NCLA GENA PRPC PRPC PRPC NCLA NCLA NCLA NCLA NCLA NCLA

$$$$
22
     RDKit          3D

 12 12  0  0  0  0  0  0  0  0999 V2000
   11.8758    7.1572  -40.6968 O   0  0  0  0  0  0  0  0  0  0  0  0
   11.1259    7.6079  -41.8207 S   0  0  0  0  0  0  0  0  0  0  0  0
   10.0780    8.5556  -41.6408 O   0  0  0  0  0  0  0  0  0  0  0  0
   12.1654    8.0510  -43.1458 C   0  0  0  0  0  0  0  0  0  0  0  0
   11.6242    6.7791  -43.9945 C   0  0  0  0  0  0  0  0  0  0  0  0
   10.6188    6.2785  -42.8235 C   0  0  0  0  0  0  0  0  0  0  0  0
   13.2355    7.9434  -43.0327 H   0  0  0  0  0  0  0  0  0  0  0  0
   11.9448    8.9459  -43.7108 H   0  0  0  0  0  0  0  0  0  0  0  0
   12.4050    6.0594  -44.1999 H   0  0  0  0  0  0  0  0  0  0  0  0
   11.0948    7.0780  -44.8890 H   0  0  0  0  0  0  0  0  0  0  0  0
    9.6138    6.2759  -43.2261 H   0  0  0  0  0  0  0  0  0  0  0  0
   10.9042    5.2720  -42.5478 H   0  0  0  0  0  0  0  0  0  0  0  0
  1  2  2  0
  2  3  2  0
  2  4  1  0
  2  6  1  0
  4  5  1  0
  4  7  1  0
  4  8  1  0
  5  6  1  0
  5  9  1  0
  5 10  1  0
  6 11  1  0
  6 12  1  0
M  END
> <intraLJ>
-0.830    

> <intraEL>
0.015     

> <intraDihe>
20.344    

> <interLJ>
0.000     

> <interEJ>
0.000     

> <gridLJ>
-2.332    

> <gridEL>
0.000     

> <totalE>
17.197    

> <LGFE>
-2.332  

> <LE>
-0.389  

> <SMILES>
O=S1(=O)CCC1

> <atom.dprop.GFE>
-0.93 0 -1.2 -0.23 -0.067 0.068 0 0 0 0 0 0

> <atom.prop.CLASS>
GENA NCLA GENA PRPC PRPC PRPC NCLA NCLA NCLA NCLA NCLA NCLA

$$$$
22
     RDKit          3D

 12 12  0  0  0  0  0  0  0  0999 V2000
   24.8941   16.1122   -7.2445 O   0  0  0  0  0  0  0  0  0  0  0  0
   24.7430   15.1870   -6.1721 S   0  0  0  0  0  0  0  0  0  0  0  0
   25.8564   14.4088   -5.7441 O   0  0  0  0  0  0  0  0  0  0  0  0
   23.9106   15.9053   -4.8216 C   0  0  0  0  0  0  0  0  0  0  0  0
   22.6341   14.9434   -5.0979 C   0  0  0  0  0  0  0  0  0  0  0  0
   23.3183   14.2069   -6.3715 C   0  0  0  0  0  0  0  0  0  0  0  0
   23.5755   16.9308   -4.8961 H   0  0  0  0  0  0  0  0  0  0  0  0
   24.2652   15.7076   -3.8197 H   0  0  0  0  0  0  0  0  0  0  0  0
   21.7501   15.5022   -5.3736 H   0  0  0  0  0  0  0  0  0  0  0  0
   22.4503   14.2604   -4.2797 H   0  0  0  0  0  0  0  0  0  0  0  0
   23.3729   13.1477   -6.1540 H   0  0  0  0  0  0  0  0  0  0  0  0
   22.6825   14.3706   -7.2315 H   0  0  0  0  0  0  0  0  0  0  0  0
  1  2  2  0
  2  3  2  0
  2  4  1  0
  2  6  1  0
  4  5  1  0
  4  7  1  0
  4  8  1  0
  5  6  1  0
  5  9  1  0
  5 10  1  0
  6 11  1  0
  6 12  1  0
M  END
> <intraLJ>
-0.830    

> <intraEL>
0.015     

> <intraDihe>
20.344    

> <interLJ>
0.000     

> <interEJ>
0.000     

> <gridLJ>
-2.344    

> <gridEL>
0.000     

> <totalE>
17.185    

> <LGFE>
-2.344  

> <LE>
-0.391  

> <SMILES>
O=S1(=O)CCC1

> <atom.dprop.GFE>
-0.76 0 -0.46 -0.31 -0.51 -0.31 0 0 0 0 0 0

> <atom.prop.CLASS>
GENA NCLA GENA PRPC PRPC PRPC NCLA NCLA NCLA NCLA NCLA NCLA

$$$$
22
     RDKit          3D

 12 12  0  0  0  0  0  0  0  0999 V2000
   16.9268   -0.8806  -35.9254 O   0  0  0  0  0  0  0  0  0  0  0  0
   16.9128   -1.8067  -34.8433 S   0  0  0  0  0  0  0  0  0  0  0  0
   17.9394   -2.7881  -34.7357 O   0  0  0  0  0  0  0  0  0  0  0  0
   16.6340   -1.0067  -33.3217 C   0  0  0  0  0  0  0  0  0  0  0  0
   15.1774   -1.7130  -33.2183 C   0  0  0  0  0  0  0  0  0  0  0  0
   15.3345   -2.5075  -34.6243 C   0  0  0  0  0  0  0  0  0  0  0  0
   16.4849    0.0643  -33.3109 H   0  0  0  0  0  0  0  0  0  0  0  0
   17.2103   -1.3051  -32.4572 H   0  0  0  0  0  0  0  0  0  0  0  0
   14.3694   -0.9945  -33.2414 H   0  0  0  0  0  0  0  0  0  0  0  0
   15.1063   -2.3849  -32.3738 H   0  0  0  0  0  0  0  0  0  0  0  0
   15.2527   -3.5674  -34.4188 H   0  0  0  0  0  0  0  0  0  0  0  0
   14.5261   -2.1980  -35.2734 H   0  0  0  0  0  0  0  0  0  0  0  0
  1  2  2  0
  2  3  2  0
  2  4  1  0
  2  6  1  0
  4  5  1  0
  4  7  1  0
  4  8  1  0
  5  6  1  0
  5  9  1  0
  5 10  1  0
  6 11  1  0
  6 12  1  0
M  END
> <intraLJ>
-0.830    

> <intraEL>
0.015     

> <intraDihe>
20.344    

> <interLJ>
0.000     

> <interEJ>
0.000     

> <gridLJ>
-2.382    

> <gridEL>
0.000     

> <totalE>
17.147    

> <LGFE>
-2.382  

> <LE>
-0.397  

> <SMILES>
O=S1(=O)CCC1

> <atom.dprop.GFE>
-1 0 -0.41 -0.49 -0.32 -0.12 0 0 0 0 0 0

> <atom.prop.CLASS>
GENA NCLA GENA PRPC PRPC PRPC NCLA NCLA NCLA NCLA NCLA NCLA

$$$$
22
     RDKit          3D

 12 12  0  0  0  0  0  0  0  0999 V2000
  -37.9242    7.4475   14.4902 O   0  0  0  0  0  0  0  0  0  0  0  0
  -36.7769    8.1355   14.9790 S   0  0  0  0  0  0  0  0  0  0  0  0
  -36.8311    8.8014   16.2369 O   0  0  0  0  0  0  0  0  0  0  0  0
  -35.3393    7.1633   14.8339 C   0  0  0  0  0  0  0  0  0  0  0  0
  -34.7736    8.1713   13.6959 C   0  0  0  0  0  0  0  0  0  0  0  0
  -36.0690    9.1468   13.7517 C   0  0  0  0  0  0  0  0  0  0  0  0
  -35.4139    6.1772   14.3963 H   0  0  0  0  0  0  0  0  0  0  0  0
  -34.6292    7.1497   15.6488 H   0  0  0  0  0  0  0  0  0  0  0  0
  -34.6657    7.6874   12.7347 H   0  0  0  0  0  0  0  0  0  0  0  0
  -33.8681    8.6744   14.0070 H   0  0  0  0  0  0  0  0  0  0  0  0
  -35.7275   10.1388   14.0189 H   0  0  0  0  0  0  0  0  0  0  0  0
  -36.5128    9.1669   12.7652 H   0  0  0  0  0  0  0  0  0  0  0  0
  1  2  2  0
  2  3  2  0
  2  4  1  0
  2  6  1  0
  4  5  1  0
  4  7  1  0
  4  8  1  0
  5  6  1  0
  5  9  1  0
  5 10  1  0
  6 11  1  0
  6 12  1  0
M  END
> <intraLJ>
-0.830    

> <intraEL>
0.015     

> <intraDihe>
20.344    

> <interLJ>
0.000     

> <interEJ>
0.000     

> <gridLJ>
-2.260    

> <gridEL>
0.000     

> <totalE>
17.269    

> <LGFE>
-2.260  

> <LE>
-0.377  

> <SMILES>
O=S1(=O)CCC1

> <atom.dprop.GFE>
-0.56 0 -0.77 -0.35 -0.33 -0.24 0 0 0 0 0 0

> <atom.prop.CLASS>
GENA NCLA GENA PRPC PRPC PRPC NCLA NCLA NCLA NCLA NCLA NCLA

$$$$
22
     RDKit          3D

 12 12  0  0  0  0  0  0  0  0999 V2000
  -24.6803   -5.4416   32.2116 O   0  0  0  0  0  0  0  0  0  0  0  0
  -24.6528   -4.2531   31.4273 S   0  0  0  0  0  0  0  0  0  0  0  0
  -23.4589   -3.8797   30.7461 O   0  0  0  0  0  0  0  0  0  0  0  0
  -26.0426   -4.1444   30.3835 C   0  0  0  0  0  0  0  0  0  0  0  0
  -26.5986   -2.8947   31.2553 C   0  0  0  0  0  0  0  0  0  0  0  0
  -25.3453   -2.9065   32.2858 C   0  0  0  0  0  0  0  0  0  0  0  0
  -26.7865   -4.9287   30.4159 H   0  0  0  0  0  0  0  0  0  0  0  0
  -25.9104   -3.8068   29.3651 H   0  0  0  0  0  0  0  0  0  0  0  0
  -27.5354   -3.1202   31.7464 H   0  0  0  0  0  0  0  0  0  0  0  0
  -26.6461   -1.9810   30.6785 H   0  0  0  0  0  0  0  0  0  0  0  0
  -24.8596   -1.9404   32.2305 H   0  0  0  0  0  0  0  0  0  0  0  0
  -25.7359   -3.0620   33.2827 H   0  0  0  0  0  0  0  0  0  0  0  0
  1  2  2  0
  2  3  2  0
  2  4  1  0
  2  6  1  0
  4  5  1  0
  4  7  1  0
  4  8  1  0
  5  6  1  0
  5  9  1  0
  5 10  1  0
  6 11  1  0
  6 12  1  0
M  END
> <intraLJ>
-0.830    

> <intraEL>
0.015     

> <intraDihe>
20.344    

> <interLJ>
0.000     

> <interEJ>
0.000     

> <gridLJ>
-2.201    

> <gridEL>
0.000     

> <totalE>
17.328    

> <LGFE>
-2.201  

> <LE>
-0.367  

> <SMILES>
O=S1(=O)CCC1

> <atom.dprop.GFE>
-0.59 0 -0.64 -0.35 -0.31 -0.31 0 0 0 0 0 0

> <atom.prop.CLASS>
GENA NCLA GENA PRPC PRPC PRPC NCLA NCLA NCLA NCLA NCLA NCLA

$$$$
22
     RDKit          3D

 12 12  0  0  0  0  0  0  0  0999 V2000
   17.0667   -3.0529   -6.6529 O   0  0  0  0  0  0  0  0  0  0  0  0
   18.0907   -3.8167   -7.2828 S   0  0  0  0  0  0  0  0  0  0  0  0
   17.7987   -4.5579   -8.4634 O   0  0  0  0  0  0  0  0  0  0  0  0
   19.5594   -2.8969   -7.4547 C   0  0  0  0  0  0  0  0  0  0  0  0
   20.2850   -3.8532   -6.3639 C   0  0  0  0  0  0  0  0  0  0  0  0
   18.9717   -4.7765   -6.1284 C   0  0  0  0  0  0  0  0  0  0  0  0
   19.5911   -1.8828   -7.0802 H   0  0  0  0  0  0  0  0  0  0  0  0
   20.1168   -2.9638   -8.3785 H   0  0  0  0  0  0  0  0  0  0  0  0
   20.5728   -3.3143   -5.4714 H   0  0  0  0  0  0  0  0  0  0  0  0
   21.1073   -4.4115   -6.7903 H   0  0  0  0  0  0  0  0  0  0  0  0
   19.2322   -5.7966   -6.3809 H   0  0  0  0  0  0  0  0  0  0  0  0
   18.7061   -4.7162   -5.0813 H   0  0  0  0  0  0  0  0  0  0  0  0
  1  2  2  0
  2  3  2  0
  2  4  1  0
  2  6  1  0
  4  5  1  0
  4  7  1  0
  4  8  1  0
  5  6  1  0
  5  9  1  0
  5 10  1  0
  6 11  1  0
  6 12  1  0
M  END
> <intraLJ>
-0.830    

> <intraEL>
0.015     

> <intraDihe>
20.344    

> <interLJ>
0.000     

> <interEJ>
0.000     

> <gridLJ>
-2.158    

> <gridEL>
0.000     

> <totalE>
17.371    

> <LGFE>
-2.158  

> <LE>
-0.360  

> <SMILES>
O=S1(=O)CCC1

> <atom.dprop.GFE>
-0.69 0 -1.1 -0.13 -0.14 -0.12 0 0 0 0 0 0

> <atom.prop.CLASS>
GENA NCLA GENA PRPC PRPC PRPC NCLA NCLA NCLA NCLA NCLA NCLA

$$$$
22
     RDKit          3D

 12 12  0  0  0  0  0  0  0  0999 V2000
  -39.3890    3.1960   28.4189 O   0  0  0  0  0  0  0  0  0  0  0  0
  -39.6526    4.1506   29.4426 S   0  0  0  0  0  0  0  0  0  0  0  0
  -40.8068    4.9808   29.3587 O   0  0  0  0  0  0  0  0  0  0  0  0
  -39.4859    3.4493   31.0280 C   0  0  0  0  0  0  0  0  0  0  0  0
  -38.1671    4.3566   31.2897 C   0  0  0  0  0  0  0  0  0  0  0  0
  -38.2299    5.0735   29.8354 C   0  0  0  0  0  0  0  0  0  0  0  0
  -39.1969    2.4109   31.1153 H   0  0  0  0  0  0  0  0  0  0  0  0
  -40.2133    3.6925   31.7898 H   0  0  0  0  0  0  0  0  0  0  0  0
  -37.2745    3.7586   31.4138 H   0  0  0  0  0  0  0  0  0  0  0  0
  -38.3069    5.0598   32.0995 H   0  0  0  0  0  0  0  0  0  0  0  0
  -38.3214    6.1406   29.9939 H   0  0  0  0  0  0  0  0  0  0  0  0
  -37.3038    4.8593   29.3187 H   0  0  0  0  0  0  0  0  0  0  0  0
  1  2  2  0
  2  3  2  0
  2  4  1  0
  2  6  1  0
  4  5  1  0
  4  7  1  0
  4  8  1  0
  5  6  1  0
  5  9  1  0
  5 10  1  0
  6 11  1  0
  6 12  1  0
M  END
> <intraLJ>
-0.830    

> <intraEL>
0.015     

> <intraDihe>
20.344    

> <interLJ>
0.000     

> <interEJ>
0.000     

> <gridLJ>
-2.168    

> <gridEL>
0.000     

> <totalE>
17.361    

> <LGFE>
-2.168  

> <LE>
-0.361  

> <SMILES>
O=S1(=O)CCC1

> <atom.dprop.GFE>
-0.51 0 -0.7 -0.27 -0.3 -0.39 0 0 0 0 0 0

> <atom.prop.CLASS>
GENA NCLA GENA PRPC PRPC PRPC NCLA NCLA NCLA NCLA NCLA NCLA

$$$$
22
     RDKit          3D

 12 12  0  0  0  0  0  0  0  0999 V2000
  -25.6386  -18.7836    8.3450 O   0  0  0  0  0  0  0  0  0  0  0  0
  -25.7313  -17.8803    7.2476 S   0  0  0  0  0  0  0  0  0  0  0  0
  -26.7610  -16.8966    7.2232 O   0  0  0  0  0  0  0  0  0  0  0  0
  -24.1812  -17.1902    6.8558 C   0  0  0  0  0  0  0  0  0  0  0  0
  -24.1680  -18.0150    5.4592 C   0  0  0  0  0  0  0  0  0  0  0  0
  -25.6084  -18.7133    5.7241 C   0  0  0  0  0  0  0  0  0  0  0  0
  -23.3131  -17.4904    7.4266 H   0  0  0  0  0  0  0  0  0  0  0  0
  -24.1186  -16.1370    6.6205 H   0  0  0  0  0  0  0  0  0  0  0  0
  -23.3640  -18.7372    5.4156 H   0  0  0  0  0  0  0  0  0  0  0  0
  -24.1815  -17.3622    4.5970 H   0  0  0  0  0  0  0  0  0  0  0  0
  -26.2694  -18.4307    4.9144 H   0  0  0  0  0  0  0  0  0  0  0  0
  -25.4641  -19.7855    5.7201 H   0  0  0  0  0  0  0  0  0  0  0  0
  1  2  2  0
  2  3  2  0
  2  4  1  0
  2  6  1  0
  4  5  1  0
  4  7  1  0
  4  8  1  0
  5  6  1  0
  5  9  1  0
  5 10  1  0
  6 11  1  0
  6 12  1  0
M  END
> <intraLJ>
-0.830    

> <intraEL>
0.015     

> <intraDihe>
20.344    

> <interLJ>
0.000     

> <interEJ>
0.000     

> <gridLJ>
-2.161    

> <gridEL>
0.000     

> <totalE>
17.367    

> <LGFE>
-2.161  

> <LE>
-0.360  

> <SMILES>
O=S1(=O)CCC1

> <atom.dprop.GFE>
-0.42 0 -0.5 -0.43 -0.4 -0.41 0 0 0 0 0 0

> <atom.prop.CLASS>
GENA NCLA GENA PRPC PRPC PRPC NCLA NCLA NCLA NCLA NCLA NCLA

$$$$
22
     RDKit          3D

 12 12  0  0  0  0  0  0  0  0999 V2000
   22.1226   -1.1981  -22.3578 O   0  0  0  0  0  0  0  0  0  0  0  0
   23.2927   -0.6139  -21.7936 S   0  0  0  0  0  0  0  0  0  0  0  0
   24.5641   -0.8561  -22.3882 O   0  0  0  0  0  0  0  0  0  0  0  0
   23.0607    1.0779  -21.4520 C   0  0  0  0  0  0  0  0  0  0  0  0
   23.1225    0.7643  -19.8617 C   0  0  0  0  0  0  0  0  0  0  0  0
   23.3441   -0.8299  -20.0672 C   0  0  0  0  0  0  0  0  0  0  0  0
   22.1014    1.5299  -21.6639 H   0  0  0  0  0  0  0  0  0  0  0  0
   23.8535    1.7750  -21.6845 H   0  0  0  0  0  0  0  0  0  0  0  0
   22.1897    0.9876  -19.3619 H   0  0  0  0  0  0  0  0  0  0  0  0
   23.9692    1.2373  -19.3829 H   0  0  0  0  0  0  0  0  0  0  0  0
   24.2819   -1.0990  -19.5977 H   0  0  0  0  0  0  0  0  0  0  0  0
   22.5292   -1.3450  -19.5762 H   0  0  0  0  0  0  0  0  0  0  0  0
  1  2  2  0
  2  3  2  0
  2  4  1  0
  2  6  1  0
  4  5  1  0
  4  7  1  0
  4  8  1  0
  5  6  1  0
  5  9  1  0
  5 10  1  0
  6 11  1  0
  6 12  1  0
M  END
> <intraLJ>
-0.830    

> <intraEL>
0.015     

> <intraDihe>
20.344    

> <interLJ>
0.000     

> <interEJ>
0.000     

> <gridLJ>
-2.136    

> <gridEL>
0.000     

> <totalE>
17.393    

> <LGFE>
-2.136  

> <LE>
-0.356  

> <SMILES>
O=S1(=O)CCC1

> <atom.dprop.GFE>
-0.45 0 -0.44 -0.46 -0.44 -0.34 0 0 0 0 0 0

> <atom.prop.CLASS>
GENA NCLA GENA PRPC PRPC PRPC NCLA NCLA NCLA NCLA NCLA NCLA

$$$$
22
     RDKit          3D

 12 12  0  0  0  0  0  0  0  0999 V2000
   17.2555   17.1189   -1.6503 O   0  0  0  0  0  0  0  0  0  0  0  0
   17.8096   16.6034   -2.8569 S   0  0  0  0  0  0  0  0  0  0  0  0
   17.0993   16.7486   -4.0828 O   0  0  0  0  0  0  0  0  0  0  0  0
   19.4834   17.0507   -3.0333 C   0  0  0  0  0  0  0  0  0  0  0  0
   19.9184   15.5022   -2.8235 C   0  0  0  0  0  0  0  0  0  0  0  0
   18.3935   14.9770   -2.6465 C   0  0  0  0  0  0  0  0  0  0  0  0
   19.9554   17.6361   -2.2561 H   0  0  0  0  0  0  0  0  0  0  0  0
   19.8435   17.3690   -4.0015 H   0  0  0  0  0  0  0  0  0  0  0  0
   20.5082   15.3583   -1.9284 H   0  0  0  0  0  0  0  0  0  0  0  0
   20.3952   15.0875   -3.7013 H   0  0  0  0  0  0  0  0  0  0  0  0
   18.2017   14.2443   -3.4201 H   0  0  0  0  0  0  0  0  0  0  0  0
   18.3132   14.5103   -1.6737 H   0  0  0  0  0  0  0  0  0  0  0  0
  1  2  2  0
  2  3  2  0
  2  4  1  0
  2  6  1  0
  4  5  1  0
  4  7  1  0
  4  8  1  0
  5  6  1  0
  5  9  1  0
  5 10  1  0
  6 11  1  0
  6 12  1  0
M  END
> <intraLJ>
-0.830    

> <intraEL>
0.015     

> <intraDihe>
20.344    

> <interLJ>
0.000     

> <interEJ>
0.000     

> <gridLJ>
-2.091    

> <gridEL>
0.000     

> <totalE>
17.437    

> <LGFE>
-2.091  

> <LE>
-0.349  

> <SMILES>
O=S1(=O)CCC1

> <atom.dprop.GFE>
-0.29 0 -0.61 -0.36 -0.48 -0.35 0 0 0 0 0 0

> <atom.prop.CLASS>
GENA NCLA GENA PRPC PRPC PRPC NCLA NCLA NCLA NCLA NCLA NCLA

$$$$
22
     RDKit          3D

 12 12  0  0  0  0  0  0  0  0999 V2000
    9.1340   -6.8546  -15.5135 O   0  0  0  0  0  0  0  0  0  0  0  0
    9.3218   -5.4987  -15.1197 S   0  0  0  0  0  0  0  0  0  0  0  0
    8.6827   -4.4537  -15.8463 O   0  0  0  0  0  0  0  0  0  0  0  0
    9.1168   -5.2983  -13.4020 C   0  0  0  0  0  0  0  0  0  0  0  0
   10.7005   -4.9816  -13.2509 C   0  0  0  0  0  0  0  0  0  0  0  0
   11.0023   -5.1439  -14.8368 C   0  0  0  0  0  0  0  0  0  0  0  0
    8.8924   -6.1649  -12.7951 H   0  0  0  0  0  0  0  0  0  0  0  0
    8.5698   -4.4417  -13.0340 H   0  0  0  0  0  0  0  0  0  0  0  0
   11.2140   -5.7259  -12.6575 H   0  0  0  0  0  0  0  0  0  0  0  0
   10.8860   -3.9758  -12.8993 H   0  0  0  0  0  0  0  0  0  0  0  0
   11.4107   -4.2075  -15.1956 H   0  0  0  0  0  0  0  0  0  0  0  0
   11.7344   -5.9313  -14.9572 H   0  0  0  0  0  0  0  0  0  0  0  0
  1  2  2  0
  2  3  2  0
  2  4  1  0
  2  6  1  0
  4  5  1  0
  4  7  1  0
  4  8  1  0
  5  6  1  0
  5  9  1  0
  5 10  1  0
  6 11  1  0
  6 12  1  0
M  END
> <intraLJ>
-0.830    

> <intraEL>
0.015     

> <intraDihe>
20.344    

> <interLJ>
0.000     

> <interEJ>
0.000     

> <gridLJ>
-2.073    

> <gridEL>
0.000     

> <totalE>
17.456    

> <LGFE>
-2.073  

> <LE>
-0.345  

> <SMILES>
O=S1(=O)CCC1

> <atom.dprop.GFE>
-0.26 0 -0.9 -0.29 -0.3 -0.31 0 0 0 0 0 0

> <atom.prop.CLASS>
GENA NCLA GENA PRPC PRPC PRPC NCLA NCLA NCLA NCLA NCLA NCLA

$$$$
22
     RDKit          3D

 12 12  0  0  0  0  0  0  0  0999 V2000
   19.6384    2.2335  -48.9728 O   0  0  0  0  0  0  0  0  0  0  0  0
   19.7369    3.4174  -49.7585 S   0  0  0  0  0  0  0  0  0  0  0  0
   20.8433    3.5956  -50.6377 O   0  0  0  0  0  0  0  0  0  0  0  0
   18.2294    3.7871  -50.5481 C   0  0  0  0  0  0  0  0  0  0  0  0
   18.0555    5.0934  -49.6024 C   0  0  0  0  0  0  0  0  0  0  0  0
   19.4451    4.8429  -48.8031 C   0  0  0  0  0  0  0  0  0  0  0  0
   17.3776    3.1418  -50.3825 H   0  0  0  0  0  0  0  0  0  0  0  0
   18.2421    4.1203  -51.5764 H   0  0  0  0  0  0  0  0  0  0  0  0
   17.1916    5.0209  -48.9558 H   0  0  0  0  0  0  0  0  0  0  0  0
   18.0691    6.0147  -50.1689 H   0  0  0  0  0  0  0  0  0  0  0  0
   20.0741    5.7121  -48.9481 H   0  0  0  0  0  0  0  0  0  0  0  0
   19.2096    4.7338  -47.7528 H   0  0  0  0  0  0  0  0  0  0  0  0
  1  2  2  0
  2  3  2  0
  2  4  1  0
  2  6  1  0
  4  5  1  0
  4  7  1  0
  4  8  1  0
  5  6  1  0
  5  9  1  0
  5 10  1  0
  6 11  1  0
  6 12  1  0
M  END
> <intraLJ>
-0.830    

> <intraEL>
0.015     

> <intraDihe>
20.344    

> <interLJ>
0.000     

> <interEJ>
0.000     

> <gridLJ>
-2.051    

> <gridEL>
0.000     

> <totalE>
17.478    

> <LGFE>
-2.051  

> <LE>
-0.342  

> <SMILES>
O=S1(=O)CCC1

> <atom.dprop.GFE>
-0.61 0 -0.33 -0.33 -0.41 -0.38 0 0 0 0 0 0

> <atom.prop.CLASS>
GENA NCLA GENA PRPC PRPC PRPC NCLA NCLA NCLA NCLA NCLA NCLA

$$$$
22
     RDKit          3D

 12 12  0  0  0  0  0  0  0  0999 V2000
  -22.9808   -9.4782    5.5879 O   0  0  0  0  0  0  0  0  0  0  0  0
  -22.9673  -10.4017    6.6722 S   0  0  0  0  0  0  0  0  0  0  0  0
  -21.7257  -10.8627    7.1963 O   0  0  0  0  0  0  0  0  0  0  0  0
  -24.0525   -9.9110    7.9427 C   0  0  0  0  0  0  0  0  0  0  0  0
  -25.0156  -11.1720    7.6059 C   0  0  0  0  0  0  0  0  0  0  0  0
  -24.0741  -11.7179    6.4025 C   0  0  0  0  0  0  0  0  0  0  0  0
  -24.6332   -9.0073    7.8177 H   0  0  0  0  0  0  0  0  0  0  0  0
  -23.7332  -10.0019    8.9715 H   0  0  0  0  0  0  0  0  0  0  0  0
  -25.9909  -10.8625    7.2554 H   0  0  0  0  0  0  0  0  0  0  0  0
  -25.0771  -11.8722    8.4279 H   0  0  0  0  0  0  0  0  0  0  0  0
  -23.7655  -12.7252    6.6519 H   0  0  0  0  0  0  0  0  0  0  0  0
  -24.6660  -11.7312    5.4970 H   0  0  0  0  0  0  0  0  0  0  0  0
  1  2  2  0
  2  3  2  0
  2  4  1  0
  2  6  1  0
  4  5  1  0
  4  7  1  0
  4  8  1  0
  5  6  1  0
  5  9  1  0
  5 10  1  0
  6 11  1  0
  6 12  1  0
M  END
> <intraLJ>
-0.830    

> <intraEL>
0.015     

> <intraDihe>
20.344    

> <interLJ>
0.000     

> <interEJ>
0.000     

> <gridLJ>
-2.052    

> <gridEL>
0.000     

> <totalE>
17.477    

> <LGFE>
-2.052  

> <LE>
-0.342  

> <SMILES>
O=S1(=O)CCC1

> <atom.dprop.GFE>
-0.56 0 -0.5 -0.43 -0.25 -0.31 0 0 0 0 0 0

> <atom.prop.CLASS>
GENA NCLA GENA PRPC PRPC PRPC NCLA NCLA NCLA NCLA NCLA NCLA

$$$$
22
     RDKit          3D

 12 12  0  0  0  0  0  0  0  0999 V2000
   21.5364   -2.8746  -26.0229 O   0  0  0  0  0  0  0  0  0  0  0  0
   21.9521   -3.3424  -27.3024 S   0  0  0  0  0  0  0  0  0  0  0  0
   21.0131   -3.4149  -28.3709 O   0  0  0  0  0  0  0  0  0  0  0  0
   23.4360   -2.5844  -27.8084 C   0  0  0  0  0  0  0  0  0  0  0  0
   24.2113   -4.0007  -27.6533 C   0  0  0  0  0  0  0  0  0  0  0  0
   22.8865   -4.8054  -27.1737 C   0  0  0  0  0  0  0  0  0  0  0  0
   23.9128   -1.8713  -27.1498 H   0  0  0  0  0  0  0  0  0  0  0  0
   23.5378   -2.2603  -28.8346 H   0  0  0  0  0  0  0  0  0  0  0  0
   24.9731   -3.9708  -26.8861 H   0  0  0  0  0  0  0  0  0  0  0  0
   24.5927   -4.3652  -28.5975 H   0  0  0  0  0  0  0  0  0  0  0  0
   22.7099   -5.6070  -27.8798 H   0  0  0  0  0  0  0  0  0  0  0  0
   23.0850   -5.2191  -26.1940 H   0  0  0  0  0  0  0  0  0  0  0  0
  1  2  2  0
  2  3  2  0
  2  4  1  0
  2  6  1  0
  4  5  1  0
  4  7  1  0
  4  8  1  0
  5  6  1  0
  5  9  1  0
  5 10  1  0
  6 11  1  0
  6 12  1  0
M  END
> <intraLJ>
-0.830    

> <intraEL>
0.015     

> <intraDihe>
20.344    

> <interLJ>
0.000     

> <interEJ>
0.000     

> <gridLJ>
-2.052    

> <gridEL>
0.000     

> <totalE>
17.477    

> <LGFE>
-2.052  

> <LE>
-0.342  

> <SMILES>
O=S1(=O)CCC1

> <atom.dprop.GFE>
-0.47 0 -1.4 -0.075 -0.0057 -0.095 0 0 0 0 0 0

> <atom.prop.CLASS>
GENA NCLA GENA PRPC PRPC PRPC NCLA NCLA NCLA NCLA NCLA NCLA

$$$$
22
     RDKit          3D

 12 12  0  0  0  0  0  0  0  0999 V2000
  -10.0330   -5.9162   10.2331 O   0  0  0  0  0  0  0  0  0  0  0  0
   -9.8492   -4.7836   11.0771 S   0  0  0  0  0  0  0  0  0  0  0  0
   -8.5491   -4.4642   11.5630 O   0  0  0  0  0  0  0  0  0  0  0  0
  -10.6559   -3.3767   10.4426 C   0  0  0  0  0  0  0  0  0  0  0  0
  -11.7116   -3.4281   11.6731 C   0  0  0  0  0  0  0  0  0  0  0  0
  -11.0353   -4.7383   12.3504 C   0  0  0  0  0  0  0  0  0  0  0  0
  -11.2158   -3.4630    9.5214 H   0  0  0  0  0  0  0  0  0  0  0  0
  -10.1517   -2.4211   10.4768 H   0  0  0  0  0  0  0  0  0  0  0  0
  -12.7233   -3.6150   11.3395 H   0  0  0  0  0  0  0  0  0  0  0  0
  -11.6427   -2.5563   12.3093 H   0  0  0  0  0  0  0  0  0  0  0  0
  -10.7228   -4.4715   13.3521 H   0  0  0  0  0  0  0  0  0  0  0  0
  -11.7876   -5.5143   12.3973 H   0  0  0  0  0  0  0  0  0  0  0  0
  1  2  2  0
  2  3  2  0
  2  4  1  0
  2  6  1  0
  4  5  1  0
  4  7  1  0
  4  8  1  0
  5  6  1  0
  5  9  1  0
  5 10  1  0
  6 11  1  0
  6 12  1  0
M  END
> <intraLJ>
-0.830    

> <intraEL>
0.015     

> <intraDihe>
20.344    

> <interLJ>
0.000     

> <interEJ>
0.000     

> <gridLJ>
-2.033    

> <gridEL>
0.000     

> <totalE>
17.495    

> <LGFE>
-2.033  

> <LE>
-0.339  

> <SMILES>
O=S1(=O)CCC1

> <atom.dprop.GFE>
-0.9 0 -0.5 -0.14 -0.26 -0.23 0 0 0 0 0 0

> <atom.prop.CLASS>
GENA NCLA GENA PRPC PRPC PRPC NCLA NCLA NCLA NCLA NCLA NCLA

$$$$
22
     RDKit          3D

 12 12  0  0  0  0  0  0  0  0999 V2000
   18.3416   -6.8597  -21.3117 O   0  0  0  0  0  0  0  0  0  0  0  0
   17.7040   -5.5920  -21.4342 S   0  0  0  0  0  0  0  0  0  0  0  0
   17.9401   -4.5816  -20.4584 O   0  0  0  0  0  0  0  0  0  0  0  0
   17.8426   -4.9609  -23.0514 C   0  0  0  0  0  0  0  0  0  0  0  0
   16.2476   -5.1636  -23.2662 C   0  0  0  0  0  0  0  0  0  0  0  0
   16.0061   -5.7628  -21.7778 C   0  0  0  0  0  0  0  0  0  0  0  0
   18.3555   -5.5469  -23.8017 H   0  0  0  0  0  0  0  0  0  0  0  0
   18.0661   -3.9124  -23.1894 H   0  0  0  0  0  0  0  0  0  0  0  0
   16.0254   -5.8858  -24.0400 H   0  0  0  0  0  0  0  0  0  0  0  0
   15.7318   -4.2254  -23.4188 H   0  0  0  0  0  0  0  0  0  0  0  0
   15.2986   -5.1191  -21.2705 H   0  0  0  0  0  0  0  0  0  0  0  0
   15.5871   -6.7548  -21.8825 H   0  0  0  0  0  0  0  0  0  0  0  0
  1  2  2  0
  2  3  2  0
  2  4  1  0
  2  6  1  0
  4  5  1  0
  4  7  1  0
  4  8  1  0
  5  6  1  0
  5  9  1  0
  5 10  1  0
  6 11  1  0
  6 12  1  0
M  END
> <intraLJ>
-0.830    

> <intraEL>
0.015     

> <intraDihe>
20.344    

> <interLJ>
0.000     

> <interEJ>
0.000     

> <gridLJ>
-2.028    

> <gridEL>
0.000     

> <totalE>
17.501    

> <LGFE>
-2.028  

> <LE>
-0.338  

> <SMILES>
O=S1(=O)CCC1

> <atom.dprop.GFE>
-0.52 0 -0.53 -0.3 -0.38 -0.3 0 0 0 0 0 0

> <atom.prop.CLASS>
GENA NCLA GENA PRPC PRPC PRPC NCLA NCLA NCLA NCLA NCLA NCLA

$$$$
22
     RDKit          3D

 12 12  0  0  0  0  0  0  0  0999 V2000
   12.1903   14.2453   -6.8333 O   0  0  0  0  0  0  0  0  0  0  0  0
   12.0477   15.4268   -7.6158 S   0  0  0  0  0  0  0  0  0  0  0  0
   13.2052   16.1304   -8.0560 O   0  0  0  0  0  0  0  0  0  0  0  0
   10.9080   15.2000   -8.9129 C   0  0  0  0  0  0  0  0  0  0  0  0
    9.8794   16.2225   -8.1866 C   0  0  0  0  0  0  0  0  0  0  0  0
   10.8667   16.5066   -6.9308 C   0  0  0  0  0  0  0  0  0  0  0  0
   10.4106   14.2451   -9.0142 H   0  0  0  0  0  0  0  0  0  0  0  0
   11.1381   15.5988   -9.8910 H   0  0  0  0  0  0  0  0  0  0  0  0
    8.9613   15.7369   -7.8848 H   0  0  0  0  0  0  0  0  0  0  0  0
    9.6999   17.1114   -8.7760 H   0  0  0  0  0  0  0  0  0  0  0  0
   11.0760   17.5686   -6.9054 H   0  0  0  0  0  0  0  0  0  0  0  0
   10.3479   16.2151   -6.0273 H   0  0  0  0  0  0  0  0  0  0  0  0
  1  2  2  0
  2  3  2  0
  2  4  1  0
  2  6  1  0
  4  5  1  0
  4  7  1  0
  4  8  1  0
  5  6  1  0
  5  9  1  0
  5 10  1  0
  6 11  1  0
  6 12  1  0
M  END
> <intraLJ>
-0.830    

> <intraEL>
0.015     

> <intraDihe>
20.344    

> <interLJ>
0.000     

> <interEJ>
0.000     

> <gridLJ>
-2.020    

> <gridEL>
0.000     

> <totalE>
17.509    

> <LGFE>
-2.020  

> <LE>
-0.337  

> <SMILES>
O=S1(=O)CCC1

> <atom.dprop.GFE>
-0.61 0 -0.85 -0.23 -0.23 -0.11 0 0 0 0 0 0

> <atom.prop.CLASS>
GENA NCLA GENA PRPC PRPC PRPC NCLA NCLA NCLA NCLA NCLA NCLA

$$$$
22
     RDKit          3D

 12 12  0  0  0  0  0  0  0  0999 V2000
  -38.7626    7.5889   14.4320 O   0  0  0  0  0  0  0  0  0  0  0  0
  -38.1650    8.4722   15.3761 S   0  0  0  0  0  0  0  0  0  0  0  0
  -38.9760    9.1291   16.3453 O   0  0  0  0  0  0  0  0  0  0  0  0
  -36.7485    7.7666   16.1031 C   0  0  0  0  0  0  0  0  0  0  0  0
  -35.8161    8.8483   15.3339 C   0  0  0  0  0  0  0  0  0  0  0  0
  -37.0670    9.5813   14.6054 C   0  0  0  0  0  0  0  0  0  0  0  0
  -36.4356    6.7789   15.7931 H   0  0  0  0  0  0  0  0  0  0  0  0
  -36.5881    7.8852   17.1655 H   0  0  0  0  0  0  0  0  0  0  0  0
  -35.1446    8.3825   14.6255 H   0  0  0  0  0  0  0  0  0  0  0  0
  -35.2990    9.5055   16.0198 H   0  0  0  0  0  0  0  0  0  0  0  0
  -37.0675   10.6203   14.9100 H   0  0  0  0  0  0  0  0  0  0  0  0
  -36.9149    9.5145   13.5363 H   0  0  0  0  0  0  0  0  0  0  0  0
  1  2  2  0
  2  3  2  0
  2  4  1  0
  2  6  1  0
  4  5  1  0
  4  7  1  0
  4  8  1  0
  5  6  1  0
  5  9  1  0
  5 10  1  0
  6 11  1  0
  6 12  1  0
M  END
> <intraLJ>
-0.830    

> <intraEL>
0.015     

> <intraDihe>
20.344    

> <interLJ>
0.000     

> <interEJ>
0.000     

> <gridLJ>
-2.012    

> <gridEL>
0.000     

> <totalE>
17.517    

> <LGFE>
-2.012  

> <LE>
-0.335  

> <SMILES>
O=S1(=O)CCC1

> <atom.dprop.GFE>
-0.53 0 -0.6 -0.18 -0.37 -0.33 0 0 0 0 0 0

> <atom.prop.CLASS>
GENA NCLA GENA PRPC PRPC PRPC NCLA NCLA NCLA NCLA NCLA NCLA

$$$$
