31_1
     RDKit          3D

 15 15  0  0  0  0  0  0  0  0999 V2000
  -15.1052    6.5264   -0.8974 O   0  0  0  0  0  0  0  0  0  0  0  0
  -15.6727    6.9692   -1.8864 C   0  0  0  0  0  0  0  0  0  0  0  0
  -16.7389    6.1340   -2.6448 C   0  0  0  0  0  0  0  0  0  0  0  0
  -17.5918    6.8944   -3.6215 N   0  0  0  0  0  0  0  0  0  0  0  0
  -16.7619    7.8960   -4.3424 C   0  0  0  0  0  0  0  0  0  0  0  0
  -16.1203    8.8839   -3.3518 C   0  0  0  0  0  0  0  0  0  0  0  0
  -15.3170    8.1613   -2.3663 N   0  0  0  0  0  0  0  0  0  0  0  0
  -17.3755    5.6439   -1.9073 H   0  0  0  0  0  0  0  0  0  0  0  0
  -16.2016    5.3581   -3.1892 H   0  0  0  0  0  0  0  0  0  0  0  0
  -18.3294    7.3685   -3.1140 H   0  0  0  0  0  0  0  0  0  0  0  0
  -17.3834    8.4490   -5.0493 H   0  0  0  0  0  0  0  0  0  0  0  0
  -15.9733    7.3887   -4.9027 H   0  0  0  0  0  0  0  0  0  0  0  0
  -16.9075    9.4442   -2.8449 H   0  0  0  0  0  0  0  0  0  0  0  0
  -15.4885    9.5825   -3.9033 H   0  0  0  0  0  0  0  0  0  0  0  0
  -14.5859    8.6361   -1.8631 H   0  0  0  0  0  0  0  0  0  0  0  0
  1  2  2  0
  2  3  1  0
  2  7  1  0
  3  4  1  0
  3  8  1  0
  3  9  1  0
  4  5  1  0
  4 10  1  0
  5  6  1  0
  5 11  1  0
  5 12  1  0
  6  7  1  0
  6 13  1  0
  6 14  1  0
  7 15  1  0
M  END
> <intraLJ>
0.615     

> <intraEL>
3.232     

> <intraDihe>
15.833    

> <interLJ>
0.000     

> <interEJ>
0.000     

> <gridLJ>
-5.485    

> <gridEL>
0.000     

> <totalE>
14.195    

> <LGFE>
-5.485  

> <LE>
-0.784  

> <SMILES>
O=C1CNCCN1

> <atom.dprop.GFE>
-2 0 -0.59 -0.8 -0.37 -0.32 -1.4 0 0 0 0 0 0 0 0

> <atom.prop.CLASS>
GENA NCLA PRPC GEND PRPC PRPC GEND NCLA NCLA NCLA NCLA NCLA NCLA NCLA NCLA

$$$$
31_1
     RDKit          3D

 15 15  0  0  0  0  0  0  0  0999 V2000
    0.3280   -2.2361   -6.3908 O   0  0  0  0  0  0  0  0  0  0  0  0
    0.6737   -2.6009   -5.2756 C   0  0  0  0  0  0  0  0  0  0  0  0
    1.9146   -3.5114   -5.0747 C   0  0  0  0  0  0  0  0  0  0  0  0
    2.4282   -3.6153   -3.6657 N   0  0  0  0  0  0  0  0  0  0  0  0
    1.2855   -3.6730   -2.7157 C   0  0  0  0  0  0  0  0  0  0  0  0
    0.4076   -2.4154   -2.8448 C   0  0  0  0  0  0  0  0  0  0  0  0
   -0.0707   -2.2721   -4.2194 N   0  0  0  0  0  0  0  0  0  0  0  0
    2.7102   -3.1521   -5.7285 H   0  0  0  0  0  0  0  0  0  0  0  0
    1.6313   -4.5081   -5.4115 H   0  0  0  0  0  0  0  0  0  0  0  0
    2.9966   -2.8018   -3.4623 H   0  0  0  0  0  0  0  0  0  0  0  0
    1.6603   -3.7457   -1.6928 H   0  0  0  0  0  0  0  0  0  0  0  0
    0.6771   -4.5564   -2.9218 H   0  0  0  0  0  0  0  0  0  0  0  0
    0.9951   -1.5389   -2.5667 H   0  0  0  0  0  0  0  0  0  0  0  0
   -0.4417   -2.5017   -2.1648 H   0  0  0  0  0  0  0  0  0  0  0  0
   -0.8909   -1.7223   -4.4150 H   0  0  0  0  0  0  0  0  0  0  0  0
  1  2  2  0
  2  3  1  0
  2  7  1  0
  3  4  1  0
  3  8  1  0
  3  9  1  0
  4  5  1  0
  4 10  1  0
  5  6  1  0
  5 11  1  0
  5 12  1  0
  6  7  1  0
  6 13  1  0
  6 14  1  0
  7 15  1  0
M  END
> <intraLJ>
0.615     

> <intraEL>
3.232     

> <intraDihe>
15.833    

> <interLJ>
0.000     

> <interEJ>
0.000     

> <gridLJ>
-5.084    

> <gridEL>
0.000     

> <totalE>
14.596    

> <LGFE>
-5.084  

> <LE>
-0.726  

> <SMILES>
O=C1CNCCN1

> <atom.dprop.GFE>
-1.8 0 -0.51 -0.97 -0.3 -0.39 -1.2 0 0 0 0 0 0 0 0

> <atom.prop.CLASS>
GENA NCLA PRPC GEND PRPC PRPC GEND NCLA NCLA NCLA NCLA NCLA NCLA NCLA NCLA

$$$$
31_1
     RDKit          3D

 15 15  0  0  0  0  0  0  0  0999 V2000
  -21.0704    5.2756    6.5786 O   0  0  0  0  0  0  0  0  0  0  0  0
  -21.4875    4.7813    5.5405 C   0  0  0  0  0  0  0  0  0  0  0  0
  -21.8078    3.2657    5.4418 C   0  0  0  0  0  0  0  0  0  0  0  0
  -22.6151    2.8444    4.2458 N   0  0  0  0  0  0  0  0  0  0  0  0
  -22.1730    3.6041    3.0462 C   0  0  0  0  0  0  0  0  0  0  0  0
  -22.3450    5.1174    3.2677 C   0  0  0  0  0  0  0  0  0  0  0  0
  -21.5994    5.5428    4.4517 N   0  0  0  0  0  0  0  0  0  0  0  0
  -22.3233    2.9663    6.3551 H   0  0  0  0  0  0  0  0  0  0  0  0
  -20.8521    2.7435    5.4125 H   0  0  0  0  0  0  0  0  0  0  0  0
  -23.5936    3.0359    4.4258 H   0  0  0  0  0  0  0  0  0  0  0  0
  -22.7621    3.2988    2.1792 H   0  0  0  0  0  0  0  0  0  0  0  0
  -21.1220    3.3902    2.8394 H   0  0  0  0  0  0  0  0  0  0  0  0
  -23.4046    5.3414    3.4003 H   0  0  0  0  0  0  0  0  0  0  0  0
  -21.9785    5.6505    2.3886 H   0  0  0  0  0  0  0  0  0  0  0  0
  -21.3306    6.5066    4.5612 H   0  0  0  0  0  0  0  0  0  0  0  0
  1  2  2  0
  2  3  1  0
  2  7  1  0
  3  4  1  0
  3  8  1  0
  3  9  1  0
  4  5  1  0
  4 10  1  0
  5  6  1  0
  5 11  1  0
  5 12  1  0
  6  7  1  0
  6 13  1  0
  6 14  1  0
  7 15  1  0
M  END
> <intraLJ>
0.615     

> <intraEL>
3.232     

> <intraDihe>
15.833    

> <interLJ>
0.000     

> <interEJ>
0.000     

> <gridLJ>
-4.652    

> <gridEL>
0.000     

> <totalE>
15.028    

> <LGFE>
-4.652  

> <LE>
-0.665  

> <SMILES>
O=C1CNCCN1

> <atom.dprop.GFE>
-1.9 0 -0.11 -1.1 -0.56 -0.53 -0.43 0 0 0 0 0 0 0 0

> <atom.prop.CLASS>
GENA NCLA PRPC GEND PRPC PRPC GEND NCLA NCLA NCLA NCLA NCLA NCLA NCLA NCLA

$$$$
31_1
     RDKit          3D

 15 15  0  0  0  0  0  0  0  0999 V2000
  -21.3573    2.5093   24.3164 O   0  0  0  0  0  0  0  0  0  0  0  0
  -21.4050    2.0712   23.1754 C   0  0  0  0  0  0  0  0  0  0  0  0
  -22.4945    2.5440   22.1760 C   0  0  0  0  0  0  0  0  0  0  0  0
  -22.2536    2.1966   20.7334 N   0  0  0  0  0  0  0  0  0  0  0  0
  -21.6773    0.8294   20.6336 C   0  0  0  0  0  0  0  0  0  0  0  0
  -20.3487    0.7421   21.4058 C   0  0  0  0  0  0  0  0  0  0  0  0
  -20.5521    1.1156   22.8050 N   0  0  0  0  0  0  0  0  0  0  0  0
  -22.6053    3.6241   22.2787 H   0  0  0  0  0  0  0  0  0  0  0  0
  -23.4303    2.0820   22.4890 H   0  0  0  0  0  0  0  0  0  0  0  0
  -21.6050    2.8669   20.3380 H   0  0  0  0  0  0  0  0  0  0  0  0
  -21.5005    0.5798   19.5856 H   0  0  0  0  0  0  0  0  0  0  0  0
  -22.3790    0.1009   21.0461 H   0  0  0  0  0  0  0  0  0  0  0  0
  -19.6234    1.4160   20.9470 H   0  0  0  0  0  0  0  0  0  0  0  0
  -19.9684   -0.2792   21.3471 H   0  0  0  0  0  0  0  0  0  0  0  0
  -19.9001    0.8127   23.5095 H   0  0  0  0  0  0  0  0  0  0  0  0
  1  2  2  0
  2  3  1  0
  2  7  1  0
  3  4  1  0
  3  8  1  0
  3  9  1  0
  4  5  1  0
  4 10  1  0
  5  6  1  0
  5 11  1  0
  5 12  1  0
  6  7  1  0
  6 13  1  0
  6 14  1  0
  7 15  1  0
M  END
> <intraLJ>
0.615     

> <intraEL>
3.232     

> <intraDihe>
15.833    

> <interLJ>
0.000     

> <interEJ>
0.000     

> <gridLJ>
-4.367    

> <gridEL>
0.000     

> <totalE>
15.313    

> <LGFE>
-4.367  

> <LE>
-0.624  

> <SMILES>
O=C1CNCCN1

> <atom.dprop.GFE>
-1.7 0 -0.21 -1 -0.22 -0.29 -0.92 0 0 0 0 0 0 0 0

> <atom.prop.CLASS>
GENA NCLA PRPC GEND PRPC PRPC GEND NCLA NCLA NCLA NCLA NCLA NCLA NCLA NCLA

$$$$
31_1
     RDKit          3D

 15 15  0  0  0  0  0  0  0  0999 V2000
  -20.9621   -3.9115   23.6698 O   0  0  0  0  0  0  0  0  0  0  0  0
  -19.9854   -3.7937   24.3966 C   0  0  0  0  0  0  0  0  0  0  0  0
  -19.5013   -4.9658   25.2918 C   0  0  0  0  0  0  0  0  0  0  0  0
  -18.1236   -4.8178   25.8745 N   0  0  0  0  0  0  0  0  0  0  0  0
  -17.9004   -3.4070   26.2888 C   0  0  0  0  0  0  0  0  0  0  0  0
  -18.0478   -2.4578   25.0862 C   0  0  0  0  0  0  0  0  0  0  0  0
  -19.3685   -2.6143   24.4780 N   0  0  0  0  0  0  0  0  0  0  0  0
  -19.5546   -5.8852   24.7075 H   0  0  0  0  0  0  0  0  0  0  0  0
  -20.2139   -5.0504   26.1116 H   0  0  0  0  0  0  0  0  0  0  0  0
  -17.4404   -5.0764   25.1726 H   0  0  0  0  0  0  0  0  0  0  0  0
  -16.8984   -3.3008   26.7093 H   0  0  0  0  0  0  0  0  0  0  0  0
  -18.6258   -3.1274   27.0560 H   0  0  0  0  0  0  0  0  0  0  0  0
  -17.2750   -2.6887   24.3514 H   0  0  0  0  0  0  0  0  0  0  0  0
  -17.9166   -1.4289   25.4256 H   0  0  0  0  0  0  0  0  0  0  0  0
  -19.7560   -1.8770   23.9129 H   0  0  0  0  0  0  0  0  0  0  0  0
  1  2  2  0
  2  3  1  0
  2  7  1  0
  3  4  1  0
  3  8  1  0
  3  9  1  0
  4  5  1  0
  4 10  1  0
  5  6  1  0
  5 11  1  0
  5 12  1  0
  6  7  1  0
  6 13  1  0
  6 14  1  0
  7 15  1  0
M  END
> <intraLJ>
0.615     

> <intraEL>
3.232     

> <intraDihe>
15.833    

> <interLJ>
0.000     

> <interEJ>
0.000     

> <gridLJ>
-4.197    

> <gridEL>
0.000     

> <totalE>
15.483    

> <LGFE>
-4.197  

> <LE>
-0.600  

> <SMILES>
O=C1CNCCN1

> <atom.dprop.GFE>
-1.5 0 -0.27 -1 -0.16 -0.2 -1.1 0 0 0 0 0 0 0 0

> <atom.prop.CLASS>
GENA NCLA PRPC GEND PRPC PRPC GEND NCLA NCLA NCLA NCLA NCLA NCLA NCLA NCLA

$$$$
31_1
     RDKit          3D

 15 15  0  0  0  0  0  0  0  0999 V2000
  -20.0768   -4.0132   23.7336 O   0  0  0  0  0  0  0  0  0  0  0  0
  -19.4204   -2.9829   23.6744 C   0  0  0  0  0  0  0  0  0  0  0  0
  -19.8215   -1.8259   22.7204 C   0  0  0  0  0  0  0  0  0  0  0  0
  -19.1491   -0.5057   22.9748 N   0  0  0  0  0  0  0  0  0  0  0  0
  -17.7242   -0.7274   23.3381 C   0  0  0  0  0  0  0  0  0  0  0  0
  -17.6149   -1.6042   24.5983 C   0  0  0  0  0  0  0  0  0  0  0  0
  -18.2982   -2.8798   24.3872 N   0  0  0  0  0  0  0  0  0  0  0  0
  -20.9038   -1.7014   22.7723 H   0  0  0  0  0  0  0  0  0  0  0  0
  -19.5716   -2.1499   21.7107 H   0  0  0  0  0  0  0  0  0  0  0  0
  -19.6236   -0.0368   23.7372 H   0  0  0  0  0  0  0  0  0  0  0  0
  -17.2382    0.2322   23.5250 H   0  0  0  0  0  0  0  0  0  0  0  0
  -17.2044   -1.2204   22.5134 H   0  0  0  0  0  0  0  0  0  0  0  0
  -18.0689   -1.0788   25.4401 H   0  0  0  0  0  0  0  0  0  0  0  0
  -16.5609   -1.7814   24.8194 H   0  0  0  0  0  0  0  0  0  0  0  0
  -18.0611   -3.6801   24.9499 H   0  0  0  0  0  0  0  0  0  0  0  0
  1  2  2  0
  2  3  1  0
  2  7  1  0
  3  4  1  0
  3  8  1  0
  3  9  1  0
  4  5  1  0
  4 10  1  0
  5  6  1  0
  5 11  1  0
  5 12  1  0
  6  7  1  0
  6 13  1  0
  6 14  1  0
  7 15  1  0
M  END
> <intraLJ>
0.615     

> <intraEL>
3.232     

> <intraDihe>
15.833    

> <interLJ>
0.000     

> <interEJ>
0.000     

> <gridLJ>
-4.196    

> <gridEL>
0.000     

> <totalE>
15.484    

> <LGFE>
-4.196  

> <LE>
-0.599  

> <SMILES>
O=C1CNCCN1

> <atom.dprop.GFE>
-1.6 0 -0.19 -0.62 -0.51 -0.28 -0.98 0 0 0 0 0 0 0 0

> <atom.prop.CLASS>
GENA NCLA PRPC GEND PRPC PRPC GEND NCLA NCLA NCLA NCLA NCLA NCLA NCLA NCLA

$$$$
31_1
     RDKit          3D

 15 15  0  0  0  0  0  0  0  0999 V2000
    8.8941   -4.0259    0.4353 O   0  0  0  0  0  0  0  0  0  0  0  0
    7.9884   -4.4225    1.1553 C   0  0  0  0  0  0  0  0  0  0  0  0
    7.8054   -3.8737    2.5957 C   0  0  0  0  0  0  0  0  0  0  0  0
    6.4871   -4.1806    3.2498 N   0  0  0  0  0  0  0  0  0  0  0  0
    6.0650   -5.5650    2.9081 C   0  0  0  0  0  0  0  0  0  0  0  0
    5.9265   -5.7303    1.3842 C   0  0  0  0  0  0  0  0  0  0  0  0
    7.1878   -5.3973    0.7231 N   0  0  0  0  0  0  0  0  0  0  0  0
    7.9591   -2.7943    2.5711 H   0  0  0  0  0  0  0  0  0  0  0  0
    8.5992   -4.3094    3.2015 H   0  0  0  0  0  0  0  0  0  0  0  0
    5.7931   -3.5229    2.9149 H   0  0  0  0  0  0  0  0  0  0  0  0
    5.1063   -5.7852    3.3818 H   0  0  0  0  0  0  0  0  0  0  0  0
    6.8032   -6.2793    3.2796 H   0  0  0  0  0  0  0  0  0  0  0  0
    5.1366   -5.0698    1.0231 H   0  0  0  0  0  0  0  0  0  0  0  0
    5.6532   -6.7630    1.1607 H   0  0  0  0  0  0  0  0  0  0  0  0
    7.3840   -5.7493   -0.1992 H   0  0  0  0  0  0  0  0  0  0  0  0
  1  2  2  0
  2  3  1  0
  2  7  1  0
  3  4  1  0
  3  8  1  0
  3  9  1  0
  4  5  1  0
  4 10  1  0
  5  6  1  0
  5 11  1  0
  5 12  1  0
  6  7  1  0
  6 13  1  0
  6 14  1  0
  7 15  1  0
M  END
> <intraLJ>
0.615     

> <intraEL>
3.232     

> <intraDihe>
15.833    

> <interLJ>
0.000     

> <interEJ>
0.000     

> <gridLJ>
-4.237    

> <gridEL>
0.000     

> <totalE>
15.443    

> <LGFE>
-4.237  

> <LE>
-0.605  

> <SMILES>
O=C1CNCCN1

> <atom.dprop.GFE>
-0.46 0 -0.53 -1.1 -0.56 -0.52 -1 0 0 0 0 0 0 0 0

> <atom.prop.CLASS>
GENA NCLA PRPC GEND PRPC PRPC GEND NCLA NCLA NCLA NCLA NCLA NCLA NCLA NCLA

$$$$
31_1
     RDKit          3D

 15 15  0  0  0  0  0  0  0  0999 V2000
   24.7478    8.0851   -8.5447 O   0  0  0  0  0  0  0  0  0  0  0  0
   23.8611    7.3332   -8.1646 C   0  0  0  0  0  0  0  0  0  0  0  0
   24.1690    5.8695   -7.7496 C   0  0  0  0  0  0  0  0  0  0  0  0
   23.0784    5.1602   -6.9964 N   0  0  0  0  0  0  0  0  0  0  0  0
   21.7538    5.5221   -7.5675 C   0  0  0  0  0  0  0  0  0  0  0  0
   21.5231    7.0415   -7.4842 C   0  0  0  0  0  0  0  0  0  0  0  0
   22.5959    7.7542   -8.1769 N   0  0  0  0  0  0  0  0  0  0  0  0
   25.0837    5.8691   -7.1557 H   0  0  0  0  0  0  0  0  0  0  0  0
   24.3677    5.3174   -8.6676 H   0  0  0  0  0  0  0  0  0  0  0  0
   23.1153    5.4401   -6.0235 H   0  0  0  0  0  0  0  0  0  0  0  0
   20.9629    5.0081   -7.0177 H   0  0  0  0  0  0  0  0  0  0  0  0
   21.7037    5.2096   -8.6129 H   0  0  0  0  0  0  0  0  0  0  0  0
   21.4989    7.3427   -6.4357 H   0  0  0  0  0  0  0  0  0  0  0  0
   20.5626    7.2823   -7.9432 H   0  0  0  0  0  0  0  0  0  0  0  0
   22.4502    8.6954   -8.5026 H   0  0  0  0  0  0  0  0  0  0  0  0
  1  2  2  0
  2  3  1  0
  2  7  1  0
  3  4  1  0
  3  8  1  0
  3  9  1  0
  4  5  1  0
  4 10  1  0
  5  6  1  0
  5 11  1  0
  5 12  1  0
  6  7  1  0
  6 13  1  0
  6 14  1  0
  7 15  1  0
M  END
> <intraLJ>
0.615     

> <intraEL>
3.232     

> <intraDihe>
15.833    

> <interLJ>
0.000     

> <interEJ>
0.000     

> <gridLJ>
-4.087    

> <gridEL>
0.000     

> <totalE>
15.593    

> <LGFE>
-4.087  

> <LE>
-0.584  

> <SMILES>
O=C1CNCCN1

> <atom.dprop.GFE>
-1.3 0 -0.31 -0.66 -0.28 -0.29 -1.3 0 0 0 0 0 0 0 0

> <atom.prop.CLASS>
GENA NCLA PRPC GEND PRPC PRPC GEND NCLA NCLA NCLA NCLA NCLA NCLA NCLA NCLA

$$$$
31_1
     RDKit          3D

 15 15  0  0  0  0  0  0  0  0999 V2000
  -17.0748    6.5289   -1.0566 O   0  0  0  0  0  0  0  0  0  0  0  0
  -17.7542    6.5356   -2.0737 C   0  0  0  0  0  0  0  0  0  0  0  0
  -18.2086    5.2131   -2.7475 C   0  0  0  0  0  0  0  0  0  0  0  0
  -19.2967    5.3437   -3.7764 N   0  0  0  0  0  0  0  0  0  0  0  0
  -19.0782    6.5704   -4.5882 C   0  0  0  0  0  0  0  0  0  0  0  0
  -19.0741    7.8215   -3.6918 C   0  0  0  0  0  0  0  0  0  0  0  0
  -18.0483    7.6981   -2.6568 N   0  0  0  0  0  0  0  0  0  0  0  0
  -18.5263    4.5235   -1.9645 H   0  0  0  0  0  0  0  0  0  0  0  0
  -17.3292    4.7873   -3.2295 H   0  0  0  0  0  0  0  0  0  0  0  0
  -20.1905    5.4057   -3.3035 H   0  0  0  0  0  0  0  0  0  0  0  0
  -19.8707    6.6650   -5.3332 H   0  0  0  0  0  0  0  0  0  0  0  0
  -18.1218    6.5024   -5.1115 H   0  0  0  0  0  0  0  0  0  0  0  0
  -20.0548    7.9312   -3.2263 H   0  0  0  0  0  0  0  0  0  0  0  0
  -18.8747    8.7006   -4.3071 H   0  0  0  0  0  0  0  0  0  0  0  0
  -17.6856    8.5202   -2.2033 H   0  0  0  0  0  0  0  0  0  0  0  0
  1  2  2  0
  2  3  1  0
  2  7  1  0
  3  4  1  0
  3  8  1  0
  3  9  1  0
  4  5  1  0
  4 10  1  0
  5  6  1  0
  5 11  1  0
  5 12  1  0
  6  7  1  0
  6 13  1  0
  6 14  1  0
  7 15  1  0
M  END
> <intraLJ>
0.615     

> <intraEL>
3.232     

> <intraDihe>
15.833    

> <interLJ>
0.000     

> <interEJ>
0.000     

> <gridLJ>
-4.109    

> <gridEL>
0.000     

> <totalE>
15.571    

> <LGFE>
-4.109  

> <LE>
-0.587  

> <SMILES>
O=C1CNCCN1

> <atom.dprop.GFE>
-1.9 0 -0.17 -0.75 -0.31 -0.26 -0.74 0 0 0 0 0 0 0 0

> <atom.prop.CLASS>
GENA NCLA PRPC GEND PRPC PRPC GEND NCLA NCLA NCLA NCLA NCLA NCLA NCLA NCLA

$$$$
31_1
     RDKit          3D

 15 15  0  0  0  0  0  0  0  0999 V2000
   -3.9468   16.0916    0.2808 O   0  0  0  0  0  0  0  0  0  0  0  0
   -3.3211   15.2803   -0.3873 C   0  0  0  0  0  0  0  0  0  0  0  0
   -3.9572   14.5964   -1.6272 C   0  0  0  0  0  0  0  0  0  0  0  0
   -3.0010   13.8880   -2.5457 N   0  0  0  0  0  0  0  0  0  0  0  0
   -1.9592   13.1890   -1.7471 C   0  0  0  0  0  0  0  0  0  0  0  0
   -1.1795   14.1902   -0.8762 C   0  0  0  0  0  0  0  0  0  0  0  0
   -2.0964   14.9206   -0.0018 N   0  0  0  0  0  0  0  0  0  0  0  0
   -4.5102   15.3518   -2.1867 H   0  0  0  0  0  0  0  0  0  0  0  0
   -4.6753   13.8685   -1.2510 H   0  0  0  0  0  0  0  0  0  0  0  0
   -2.5613   14.5703   -3.1519 H   0  0  0  0  0  0  0  0  0  0  0  0
   -1.2643   12.6774   -2.4157 H   0  0  0  0  0  0  0  0  0  0  0  0
   -2.4269   12.4422   -1.1016 H   0  0  0  0  0  0  0  0  0  0  0  0
   -0.6514   14.8920   -1.5236 H   0  0  0  0  0  0  0  0  0  0  0  0
   -0.4491   13.6464   -0.2745 H   0  0  0  0  0  0  0  0  0  0  0  0
   -1.7542   15.3593    0.8370 H   0  0  0  0  0  0  0  0  0  0  0  0
  1  2  2  0
  2  3  1  0
  2  7  1  0
  3  4  1  0
  3  8  1  0
  3  9  1  0
  4  5  1  0
  4 10  1  0
  5  6  1  0
  5 11  1  0
  5 12  1  0
  6  7  1  0
  6 13  1  0
  6 14  1  0
  7 15  1  0
M  END
> <intraLJ>
0.615     

> <intraEL>
3.232     

> <intraDihe>
15.833    

> <interLJ>
0.000     

> <interEJ>
0.000     

> <gridLJ>
-4.092    

> <gridEL>
0.000     

> <totalE>
15.588    

> <LGFE>
-4.092  

> <LE>
-0.585  

> <SMILES>
O=C1CNCCN1

> <atom.dprop.GFE>
-0.78 0 -0.66 -0.73 -0.58 -0.66 -0.69 0 0 0 0 0 0 0 0

> <atom.prop.CLASS>
GENA NCLA PRPC GEND PRPC PRPC GEND NCLA NCLA NCLA NCLA NCLA NCLA NCLA NCLA

$$$$
31_1
     RDKit          3D

 15 15  0  0  0  0  0  0  0  0999 V2000
   -6.5150   -6.4484    1.7967 O   0  0  0  0  0  0  0  0  0  0  0  0
   -6.7929   -7.5580    2.2299 C   0  0  0  0  0  0  0  0  0  0  0  0
   -5.6896   -8.6144    2.5061 C   0  0  0  0  0  0  0  0  0  0  0  0
   -6.1084   -9.7956    3.3361 N   0  0  0  0  0  0  0  0  0  0  0  0
   -7.4822  -10.2183    2.9544 C   0  0  0  0  0  0  0  0  0  0  0  0
   -8.4829   -9.0683    3.1662 C   0  0  0  0  0  0  0  0  0  0  0  0
   -8.0724   -7.8933    2.3984 N   0  0  0  0  0  0  0  0  0  0  0  0
   -4.8482   -8.1112    2.9840 H   0  0  0  0  0  0  0  0  0  0  0  0
   -5.3526   -8.9782    1.5360 H   0  0  0  0  0  0  0  0  0  0  0  0
   -6.0952   -9.5313    4.3140 H   0  0  0  0  0  0  0  0  0  0  0  0
   -7.7856  -11.0745    3.5600 H   0  0  0  0  0  0  0  0  0  0  0  0
   -7.4988  -10.5178    1.9041 H   0  0  0  0  0  0  0  0  0  0  0  0
   -8.5216   -8.8187    4.2277 H   0  0  0  0  0  0  0  0  0  0  0  0
   -9.4736   -9.3934    2.8434 H   0  0  0  0  0  0  0  0  0  0  0  0
   -8.7465   -7.1862    2.1563 H   0  0  0  0  0  0  0  0  0  0  0  0
  1  2  2  0
  2  3  1  0
  2  7  1  0
  3  4  1  0
  3  8  1  0
  3  9  1  0
  4  5  1  0
  4 10  1  0
  5  6  1  0
  5 11  1  0
  5 12  1  0
  6  7  1  0
  6 13  1  0
  6 14  1  0
  7 15  1  0
M  END
> <intraLJ>
0.615     

> <intraEL>
3.232     

> <intraDihe>
15.833    

> <interLJ>
0.000     

> <interEJ>
0.000     

> <gridLJ>
-3.990    

> <gridEL>
0.000     

> <totalE>
15.690    

> <LGFE>
-3.990  

> <LE>
-0.570  

> <SMILES>
O=C1CNCCN1

> <atom.dprop.GFE>
-1.2 0 -0.21 -0.84 -0.35 -0.31 -1.1 0 0 0 0 0 0 0 0

> <atom.prop.CLASS>
GENA NCLA PRPC GEND PRPC PRPC GEND NCLA NCLA NCLA NCLA NCLA NCLA NCLA NCLA

$$$$
31_1
     RDKit          3D

 15 15  0  0  0  0  0  0  0  0999 V2000
  -22.7018    5.0406    6.4554 O   0  0  0  0  0  0  0  0  0  0  0  0
  -22.8513    4.5078    5.3646 C   0  0  0  0  0  0  0  0  0  0  0  0
  -23.6040    3.1576    5.2240 C   0  0  0  0  0  0  0  0  0  0  0  0
  -24.0098    2.7775    3.8274 N   0  0  0  0  0  0  0  0  0  0  0  0
  -22.9321    3.1462    2.8713 C   0  0  0  0  0  0  0  0  0  0  0  0
  -22.6522    4.6587    2.9250 C   0  0  0  0  0  0  0  0  0  0  0  0
  -22.2942    5.0583    4.2854 N   0  0  0  0  0  0  0  0  0  0  0  0
  -24.4857    3.1908    5.8650 H   0  0  0  0  0  0  0  0  0  0  0  0
  -22.9398    2.3855    5.6110 H   0  0  0  0  0  0  0  0  0  0  0  0
  -24.8601    3.2725    3.5860 H   0  0  0  0  0  0  0  0  0  0  0  0
  -23.2296    2.8718    1.8573 H   0  0  0  0  0  0  0  0  0  0  0  0
  -22.0165    2.6042    3.1187 H   0  0  0  0  0  0  0  0  0  0  0  0
  -23.5448    5.1992    2.6059 H   0  0  0  0  0  0  0  0  0  0  0  0
  -21.8336    4.8945    2.2428 H   0  0  0  0  0  0  0  0  0  0  0  0
  -21.7761    5.9067    4.4439 H   0  0  0  0  0  0  0  0  0  0  0  0
  1  2  2  0
  2  3  1  0
  2  7  1  0
  3  4  1  0
  3  8  1  0
  3  9  1  0
  4  5  1  0
  4 10  1  0
  5  6  1  0
  5 11  1  0
  5 12  1  0
  6  7  1  0
  6 13  1  0
  6 14  1  0
  7 15  1  0
M  END
> <intraLJ>
0.615     

> <intraEL>
3.232     

> <intraDihe>
15.833    

> <interLJ>
0.000     

> <interEJ>
0.000     

> <gridLJ>
-3.945    

> <gridEL>
0.000     

> <totalE>
15.735    

> <LGFE>
-3.945  

> <LE>
-0.564  

> <SMILES>
O=C1CNCCN1

> <atom.dprop.GFE>
-0.96 0 -0.33 -1.2 -0.56 -0.53 -0.39 0 0 0 0 0 0 0 0

> <atom.prop.CLASS>
GENA NCLA PRPC GEND PRPC PRPC GEND NCLA NCLA NCLA NCLA NCLA NCLA NCLA NCLA

$$$$
31_1
     RDKit          3D

 15 15  0  0  0  0  0  0  0  0999 V2000
   -6.2755   11.5734   -5.0853 O   0  0  0  0  0  0  0  0  0  0  0  0
   -6.0488   11.3230   -6.2609 C   0  0  0  0  0  0  0  0  0  0  0  0
   -5.1156   10.1518   -6.6696 C   0  0  0  0  0  0  0  0  0  0  0  0
   -5.1787    9.7387   -8.1135 N   0  0  0  0  0  0  0  0  0  0  0  0
   -5.3046   10.9427   -8.9773 C   0  0  0  0  0  0  0  0  0  0  0  0
   -6.5736   11.7371   -8.6204 C   0  0  0  0  0  0  0  0  0  0  0  0
   -6.5525   12.1152   -7.2078 N   0  0  0  0  0  0  0  0  0  0  0  0
   -5.3448    9.2959   -6.0337 H   0  0  0  0  0  0  0  0  0  0  0  0
   -4.0972   10.4687   -6.4470 H   0  0  0  0  0  0  0  0  0  0  0  0
   -5.9843    9.1394   -8.2490 H   0  0  0  0  0  0  0  0  0  0  0  0
   -5.3530   10.6406  -10.0253 H   0  0  0  0  0  0  0  0  0  0  0  0
   -4.4315   11.5857   -8.8455 H   0  0  0  0  0  0  0  0  0  0  0  0
   -7.4506   11.1202   -8.8227 H   0  0  0  0  0  0  0  0  0  0  0  0
   -6.6206   12.6328   -9.2423 H   0  0  0  0  0  0  0  0  0  0  0  0
   -7.1092   12.8881   -6.8824 H   0  0  0  0  0  0  0  0  0  0  0  0
  1  2  2  0
  2  3  1  0
  2  7  1  0
  3  4  1  0
  3  8  1  0
  3  9  1  0
  4  5  1  0
  4 10  1  0
  5  6  1  0
  5 11  1  0
  5 12  1  0
  6  7  1  0
  6 13  1  0
  6 14  1  0
  7 15  1  0
M  END
> <intraLJ>
0.615     

> <intraEL>
3.232     

> <intraDihe>
15.833    

> <interLJ>
0.000     

> <interEJ>
0.000     

> <gridLJ>
-3.916    

> <gridEL>
0.000     

> <totalE>
15.764    

> <LGFE>
-3.916  

> <LE>
-0.559  

> <SMILES>
O=C1CNCCN1

> <atom.dprop.GFE>
-0.81 0 -0.14 -1.3 -0.43 -0.39 -0.89 0 0 0 0 0 0 0 0

> <atom.prop.CLASS>
GENA NCLA PRPC GEND PRPC PRPC GEND NCLA NCLA NCLA NCLA NCLA NCLA NCLA NCLA

$$$$
31_1
     RDKit          3D

 15 15  0  0  0  0  0  0  0  0999 V2000
   -6.4385   -7.5925    2.7946 O   0  0  0  0  0  0  0  0  0  0  0  0
   -7.1394   -8.5949    2.7875 C   0  0  0  0  0  0  0  0  0  0  0  0
   -8.6867   -8.4964    2.8624 C   0  0  0  0  0  0  0  0  0  0  0  0
   -9.4395   -9.7499    2.5136 N   0  0  0  0  0  0  0  0  0  0  0  0
   -8.7291  -10.9344    3.0650 C   0  0  0  0  0  0  0  0  0  0  0  0
   -7.3014  -11.0246    2.4972 C   0  0  0  0  0  0  0  0  0  0  0  0
   -6.5626   -9.7970    2.7902 N   0  0  0  0  0  0  0  0  0  0  0  0
   -9.0082   -7.6832    2.2105 H   0  0  0  0  0  0  0  0  0  0  0  0
   -8.9351   -8.2201    3.8866 H   0  0  0  0  0  0  0  0  0  0  0  0
   -9.4968   -9.8290    1.5052 H   0  0  0  0  0  0  0  0  0  0  0  0
   -9.2757  -11.8440    2.8086 H   0  0  0  0  0  0  0  0  0  0  0  0
   -8.6769  -10.8609    4.1536 H   0  0  0  0  0  0  0  0  0  0  0  0
   -7.3546  -11.1728    1.4174 H   0  0  0  0  0  0  0  0  0  0  0  0
   -6.7921  -11.8790    2.9465 H   0  0  0  0  0  0  0  0  0  0  0  0
   -5.5560   -9.8003    2.7915 H   0  0  0  0  0  0  0  0  0  0  0  0
  1  2  2  0
  2  3  1  0
  2  7  1  0
  3  4  1  0
  3  8  1  0
  3  9  1  0
  4  5  1  0
  4 10  1  0
  5  6  1  0
  5 11  1  0
  5 12  1  0
  6  7  1  0
  6 13  1  0
  6 14  1  0
  7 15  1  0
M  END
> <intraLJ>
0.615     

> <intraEL>
3.232     

> <intraDihe>
15.833    

> <interLJ>
0.000     

> <interEJ>
0.000     

> <gridLJ>
-3.931    

> <gridEL>
0.000     

> <totalE>
15.749    

> <LGFE>
-3.931  

> <LE>
-0.562  

> <SMILES>
O=C1CNCCN1

> <atom.dprop.GFE>
-1.3 0 -0.28 -0.7 -0.36 -0.43 -0.84 0 0 0 0 0 0 0 0

> <atom.prop.CLASS>
GENA NCLA PRPC GEND PRPC PRPC GEND NCLA NCLA NCLA NCLA NCLA NCLA NCLA NCLA

$$$$
31_1
     RDKit          3D

 15 15  0  0  0  0  0  0  0  0999 V2000
   18.5991    6.4503   -3.6607 O   0  0  0  0  0  0  0  0  0  0  0  0
   18.8313    6.5152   -4.8599 C   0  0  0  0  0  0  0  0  0  0  0  0
   20.2847    6.4661   -5.4027 C   0  0  0  0  0  0  0  0  0  0  0  0
   20.4234    6.2198   -6.8791 N   0  0  0  0  0  0  0  0  0  0  0  0
   19.3652    6.9612   -7.6155 C   0  0  0  0  0  0  0  0  0  0  0  0
   17.9669    6.5126   -7.1548 C   0  0  0  0  0  0  0  0  0  0  0  0
   17.8239    6.7060   -5.7123 N   0  0  0  0  0  0  0  0  0  0  0  0
   20.8287    5.6985   -4.8510 H   0  0  0  0  0  0  0  0  0  0  0  0
   20.7398    7.4285   -5.1707 H   0  0  0  0  0  0  0  0  0  0  0  0
   20.3272    5.2271   -7.0571 H   0  0  0  0  0  0  0  0  0  0  0  0
   19.4659    6.7790   -8.6872 H   0  0  0  0  0  0  0  0  0  0  0  0
   19.4731    8.0336   -7.4382 H   0  0  0  0  0  0  0  0  0  0  0  0
   17.8308    5.4580   -7.3997 H   0  0  0  0  0  0  0  0  0  0  0  0
   17.2123    7.0982   -7.6830 H   0  0  0  0  0  0  0  0  0  0  0  0
   16.9086    6.7800   -5.2999 H   0  0  0  0  0  0  0  0  0  0  0  0
  1  2  2  0
  2  3  1  0
  2  7  1  0
  3  4  1  0
  3  8  1  0
  3  9  1  0
  4  5  1  0
  4 10  1  0
  5  6  1  0
  5 11  1  0
  5 12  1  0
  6  7  1  0
  6 13  1  0
  6 14  1  0
  7 15  1  0
M  END
> <intraLJ>
0.615     

> <intraEL>
3.232     

> <intraDihe>
15.833    

> <interLJ>
0.000     

> <interEJ>
0.000     

> <gridLJ>
-3.877    

> <gridEL>
0.000     

> <totalE>
15.803    

> <LGFE>
-3.877  

> <LE>
-0.554  

> <SMILES>
O=C1CNCCN1

> <atom.dprop.GFE>
-0.94 0 -0.31 -0.87 -0.46 -0.47 -0.82 0 0 0 0 0 0 0 0

> <atom.prop.CLASS>
GENA NCLA PRPC GEND PRPC PRPC GEND NCLA NCLA NCLA NCLA NCLA NCLA NCLA NCLA

$$$$
31_1
     RDKit          3D

 15 15  0  0  0  0  0  0  0  0999 V2000
  -15.9626    7.0945  -16.8549 O   0  0  0  0  0  0  0  0  0  0  0  0
  -15.8288    7.9011  -15.9452 C   0  0  0  0  0  0  0  0  0  0  0  0
  -14.4267    8.2515  -15.3789 C   0  0  0  0  0  0  0  0  0  0  0  0
  -14.3592    9.4779  -14.5123 N   0  0  0  0  0  0  0  0  0  0  0  0
  -15.5651    9.5493  -13.6450 C   0  0  0  0  0  0  0  0  0  0  0  0
  -16.8454    9.5997  -14.4977 C   0  0  0  0  0  0  0  0  0  0  0  0
  -16.9118    8.4346  -15.3789 N   0  0  0  0  0  0  0  0  0  0  0  0
  -13.7374    8.3575  -16.2174 H   0  0  0  0  0  0  0  0  0  0  0  0
  -14.1032    7.3951  -14.7881 H   0  0  0  0  0  0  0  0  0  0  0  0
  -14.3204   10.2980  -15.1060 H   0  0  0  0  0  0  0  0  0  0  0  0
  -15.5156   10.4419  -13.0183 H   0  0  0  0  0  0  0  0  0  0  0  0
  -15.6042    8.6740  -12.9928 H   0  0  0  0  0  0  0  0  0  0  0  0
  -16.8416   10.5128  -15.0951 H   0  0  0  0  0  0  0  0  0  0  0  0
  -17.7139    9.6135  -13.8368 H   0  0  0  0  0  0  0  0  0  0  0  0
  -17.7960    8.1333  -15.7538 H   0  0  0  0  0  0  0  0  0  0  0  0
  1  2  2  0
  2  3  1  0
  2  7  1  0
  3  4  1  0
  3  8  1  0
  3  9  1  0
  4  5  1  0
  4 10  1  0
  5  6  1  0
  5 11  1  0
  5 12  1  0
  6  7  1  0
  6 13  1  0
  6 14  1  0
  7 15  1  0
M  END
> <intraLJ>
0.615     

> <intraEL>
3.232     

> <intraDihe>
15.833    

> <interLJ>
0.000     

> <interEJ>
0.000     

> <gridLJ>
-3.855    

> <gridEL>
0.000     

> <totalE>
15.825    

> <LGFE>
-3.855  

> <LE>
-0.551  

> <SMILES>
O=C1CNCCN1

> <atom.dprop.GFE>
-1 0 -0.51 -0.83 -0.48 -0.37 -0.64 0 0 0 0 0 0 0 0

> <atom.prop.CLASS>
GENA NCLA PRPC GEND PRPC PRPC GEND NCLA NCLA NCLA NCLA NCLA NCLA NCLA NCLA

$$$$
31_1
     RDKit          3D

 15 15  0  0  0  0  0  0  0  0999 V2000
  -20.1986    5.6392    6.8306 O   0  0  0  0  0  0  0  0  0  0  0  0
  -19.0178    5.4672    7.0993 C   0  0  0  0  0  0  0  0  0  0  0  0
  -18.5846    4.5594    8.2815 C   0  0  0  0  0  0  0  0  0  0  0  0
  -17.1345    4.1639    8.3050 N   0  0  0  0  0  0  0  0  0  0  0  0
  -16.2912    5.3150    7.8864 C   0  0  0  0  0  0  0  0  0  0  0  0
  -16.6685    5.7775    6.4678 C   0  0  0  0  0  0  0  0  0  0  0  0
  -18.0868    6.1294    6.4116 N   0  0  0  0  0  0  0  0  0  0  0  0
  -19.2078    3.6644    8.2698 H   0  0  0  0  0  0  0  0  0  0  0  0
  -18.8062    5.1076    9.1966 H   0  0  0  0  0  0  0  0  0  0  0  0
  -16.9942    3.3913    7.6649 H   0  0  0  0  0  0  0  0  0  0  0  0
  -15.2387    5.0252    7.9016 H   0  0  0  0  0  0  0  0  0  0  0  0
  -16.4282    6.1463    8.5817 H   0  0  0  0  0  0  0  0  0  0  0  0
  -16.4614    4.9715    5.7619 H   0  0  0  0  0  0  0  0  0  0  0  0
  -16.0615    6.6447    6.2019 H   0  0  0  0  0  0  0  0  0  0  0  0
  -18.4280    6.7418    5.6893 H   0  0  0  0  0  0  0  0  0  0  0  0
  1  2  2  0
  2  3  1  0
  2  7  1  0
  3  4  1  0
  3  8  1  0
  3  9  1  0
  4  5  1  0
  4 10  1  0
  5  6  1  0
  5 11  1  0
  5 12  1  0
  6  7  1  0
  6 13  1  0
  6 14  1  0
  7 15  1  0
M  END
> <intraLJ>
0.615     

> <intraEL>
3.232     

> <intraDihe>
15.833    

> <interLJ>
0.000     

> <interEJ>
0.000     

> <gridLJ>
-3.631    

> <gridEL>
0.000     

> <totalE>
16.049    

> <LGFE>
-3.631  

> <LE>
-0.519  

> <SMILES>
O=C1CNCCN1

> <atom.dprop.GFE>
-1.9 0 -0.58 0.28 -0.51 -0.58 -0.37 0 0 0 0 0 0 0 0

> <atom.prop.CLASS>
GENA NCLA PRPC GEND PRPC PRPC GEND NCLA NCLA NCLA NCLA NCLA NCLA NCLA NCLA

$$$$
31_1
     RDKit          3D

 15 15  0  0  0  0  0  0  0  0999 V2000
  -25.5986   -4.8574    4.6552 O   0  0  0  0  0  0  0  0  0  0  0  0
  -26.6689   -5.2962    4.2578 C   0  0  0  0  0  0  0  0  0  0  0  0
  -27.9265   -4.3910    4.1662 C   0  0  0  0  0  0  0  0  0  0  0  0
  -29.0718   -4.9420    3.3635 N   0  0  0  0  0  0  0  0  0  0  0  0
  -29.2067   -6.4017    3.6139 C   0  0  0  0  0  0  0  0  0  0  0  0
  -27.9133   -7.1411    3.2274 C   0  0  0  0  0  0  0  0  0  0  0  0
  -26.7775   -6.5931    3.9678 N   0  0  0  0  0  0  0  0  0  0  0  0
  -27.6231   -3.4268    3.7566 H   0  0  0  0  0  0  0  0  0  0  0  0
  -28.2703   -4.2259    5.1868 H   0  0  0  0  0  0  0  0  0  0  0  0
  -28.8900   -4.7830    2.3796 H   0  0  0  0  0  0  0  0  0  0  0  0
  -30.0372   -6.8006    3.0282 H   0  0  0  0  0  0  0  0  0  0  0  0
  -29.4168   -6.5779    4.6713 H   0  0  0  0  0  0  0  0  0  0  0  0
  -27.7429   -7.0272    2.1556 H   0  0  0  0  0  0  0  0  0  0  0  0
  -28.0269   -8.2021    3.4563 H   0  0  0  0  0  0  0  0  0  0  0  0
  -25.9430   -7.1418    4.0931 H   0  0  0  0  0  0  0  0  0  0  0  0
  1  2  2  0
  2  3  1  0
  2  7  1  0
  3  4  1  0
  3  8  1  0
  3  9  1  0
  4  5  1  0
  4 10  1  0
  5  6  1  0
  5 11  1  0
  5 12  1  0
  6  7  1  0
  6 13  1  0
  6 14  1  0
  7 15  1  0
M  END
> <intraLJ>
0.615     

> <intraEL>
3.232     

> <intraDihe>
15.833    

> <interLJ>
0.000     

> <interEJ>
0.000     

> <gridLJ>
-3.544    

> <gridEL>
0.000     

> <totalE>
16.136    

> <LGFE>
-3.544  

> <LE>
-0.506  

> <SMILES>
O=C1CNCCN1

> <atom.dprop.GFE>
-1.4 0 -0.24 -0.42 -0.23 -0.26 -1 0 0 0 0 0 0 0 0

> <atom.prop.CLASS>
GENA NCLA PRPC GEND PRPC PRPC GEND NCLA NCLA NCLA NCLA NCLA NCLA NCLA NCLA

$$$$
31_1
     RDKit          3D

 15 15  0  0  0  0  0  0  0  0999 V2000
   -1.9904    4.0700    7.7805 O   0  0  0  0  0  0  0  0  0  0  0  0
   -1.7242    2.9386    8.1617 C   0  0  0  0  0  0  0  0  0  0  0  0
   -2.5474    1.7128    7.6831 C   0  0  0  0  0  0  0  0  0  0  0  0
   -1.9305    0.3675    7.9468 N   0  0  0  0  0  0  0  0  0  0  0  0
   -1.2775    0.3656    9.2829 C   0  0  0  0  0  0  0  0  0  0  0  0
   -0.1858    1.4480    9.3556 C   0  0  0  0  0  0  0  0  0  0  0  0
   -0.7567    2.7620    9.0621 N   0  0  0  0  0  0  0  0  0  0  0  0
   -2.7365    1.8255    6.6149 H   0  0  0  0  0  0  0  0  0  0  0  0
   -3.5066    1.7578    8.1977 H   0  0  0  0  0  0  0  0  0  0  0  0
   -1.2385    0.1775    7.2317 H   0  0  0  0  0  0  0  0  0  0  0  0
   -0.8279   -0.6112    9.4716 H   0  0  0  0  0  0  0  0  0  0  0  0
   -2.0222    0.5562   10.0590 H   0  0  0  0  0  0  0  0  0  0  0  0
    0.5962    1.2167    8.6306 H   0  0  0  0  0  0  0  0  0  0  0  0
    0.2495    1.4491   10.3565 H   0  0  0  0  0  0  0  0  0  0  0  0
   -0.2900    3.5976    9.3739 H   0  0  0  0  0  0  0  0  0  0  0  0
  1  2  2  0
  2  3  1  0
  2  7  1  0
  3  4  1  0
  3  8  1  0
  3  9  1  0
  4  5  1  0
  4 10  1  0
  5  6  1  0
  5 11  1  0
  5 12  1  0
  6  7  1  0
  6 13  1  0
  6 14  1  0
  7 15  1  0
M  END
> <intraLJ>
0.615     

> <intraEL>
3.232     

> <intraDihe>
15.833    

> <interLJ>
0.000     

> <interEJ>
0.000     

> <gridLJ>
-3.520    

> <gridEL>
0.000     

> <totalE>
16.160    

> <LGFE>
-3.520  

> <LE>
-0.503  

> <SMILES>
O=C1CNCCN1

> <atom.dprop.GFE>
-1.1 0 -0.4 -0.98 -0.28 -0.32 -0.47 0 0 0 0 0 0 0 0

> <atom.prop.CLASS>
GENA NCLA PRPC GEND PRPC PRPC GEND NCLA NCLA NCLA NCLA NCLA NCLA NCLA NCLA

$$$$
31_1
     RDKit          3D

 15 15  0  0  0  0  0  0  0  0999 V2000
  -30.5800   -9.5968   22.3294 O   0  0  0  0  0  0  0  0  0  0  0  0
  -30.2656   -9.8777   23.4776 C   0  0  0  0  0  0  0  0  0  0  0  0
  -30.0939  -11.3533   23.9277 C   0  0  0  0  0  0  0  0  0  0  0  0
  -29.3930  -11.5588   25.2415 N   0  0  0  0  0  0  0  0  0  0  0  0
  -29.8242  -10.5171   26.2113 C   0  0  0  0  0  0  0  0  0  0  0  0
  -29.5002   -9.1104   25.6774 C   0  0  0  0  0  0  0  0  0  0  0  0
  -30.1400   -8.9031   24.3789 N   0  0  0  0  0  0  0  0  0  0  0  0
  -29.5617  -11.8896   23.1412 H   0  0  0  0  0  0  0  0  0  0  0  0
  -31.0946  -11.7779   24.0020 H   0  0  0  0  0  0  0  0  0  0  0  0
  -28.3929  -11.4910   25.0945 H   0  0  0  0  0  0  0  0  0  0  0  0
  -29.3122  -10.6664   27.1640 H   0  0  0  0  0  0  0  0  0  0  0  0
  -30.8999  -10.5950   26.3841 H   0  0  0  0  0  0  0  0  0  0  0  0
  -28.4188   -9.0069   25.5752 H   0  0  0  0  0  0  0  0  0  0  0  0
  -29.8605   -8.3666   26.3902 H   0  0  0  0  0  0  0  0  0  0  0  0
  -30.3115   -7.9700   24.0424 H   0  0  0  0  0  0  0  0  0  0  0  0
  1  2  2  0
  2  3  1  0
  2  7  1  0
  3  4  1  0
  3  8  1  0
  3  9  1  0
  4  5  1  0
  4 10  1  0
  5  6  1  0
  5 11  1  0
  5 12  1  0
  6  7  1  0
  6 13  1  0
  6 14  1  0
  7 15  1  0
M  END
> <intraLJ>
0.615     

> <intraEL>
3.232     

> <intraDihe>
15.833    

> <interLJ>
0.000     

> <interEJ>
0.000     

> <gridLJ>
-3.523    

> <gridEL>
0.000     

> <totalE>
16.157    

> <LGFE>
-3.523  

> <LE>
-0.503  

> <SMILES>
O=C1CNCCN1

> <atom.dprop.GFE>
-1.1 0 -0.35 -0.36 -0.48 -0.45 -0.77 0 0 0 0 0 0 0 0

> <atom.prop.CLASS>
GENA NCLA PRPC GEND PRPC PRPC GEND NCLA NCLA NCLA NCLA NCLA NCLA NCLA NCLA

$$$$
31_1
     RDKit          3D

 15 15  0  0  0  0  0  0  0  0999 V2000
   22.4158    3.6567  -30.7245 O   0  0  0  0  0  0  0  0  0  0  0  0
   22.7480    2.6009  -30.2039 C   0  0  0  0  0  0  0  0  0  0  0  0
   22.9181    2.4795  -28.6658 C   0  0  0  0  0  0  0  0  0  0  0  0
   22.9984    1.0792  -28.1252 N   0  0  0  0  0  0  0  0  0  0  0  0
   23.8007    0.2292  -29.0446 C   0  0  0  0  0  0  0  0  0  0  0  0
   23.1667    0.1968  -30.4467 C   0  0  0  0  0  0  0  0  0  0  0  0
   23.0415    1.5542  -30.9761 N   0  0  0  0  0  0  0  0  0  0  0  0
   22.0923    3.0090  -28.1890 H   0  0  0  0  0  0  0  0  0  0  0  0
   23.8400    3.0003  -28.4092 H   0  0  0  0  0  0  0  0  0  0  0  0
   22.0611    0.7026  -28.0478 H   0  0  0  0  0  0  0  0  0  0  0  0
   23.8558   -0.7880  -28.6518 H   0  0  0  0  0  0  0  0  0  0  0  0
   24.8167    0.6230  -29.1207 H   0  0  0  0  0  0  0  0  0  0  0  0
   22.1803   -0.2653  -30.3826 H   0  0  0  0  0  0  0  0  0  0  0  0
   23.7950   -0.4019  -31.1086 H   0  0  0  0  0  0  0  0  0  0  0  0
   22.9616    1.7051  -31.9681 H   0  0  0  0  0  0  0  0  0  0  0  0
  1  2  2  0
  2  3  1  0
  2  7  1  0
  3  4  1  0
  3  8  1  0
  3  9  1  0
  4  5  1  0
  4 10  1  0
  5  6  1  0
  5 11  1  0
  5 12  1  0
  6  7  1  0
  6 13  1  0
  6 14  1  0
  7 15  1  0
M  END
> <intraLJ>
0.615     

> <intraEL>
3.232     

> <intraDihe>
15.833    

> <interLJ>
0.000     

> <interEJ>
0.000     

> <gridLJ>
-3.500    

> <gridEL>
0.000     

> <totalE>
16.180    

> <LGFE>
-3.500  

> <LE>
-0.500  

> <SMILES>
O=C1CNCCN1

> <atom.dprop.GFE>
-1.5 0 -0.27 -0.66 -0.25 -0.21 -0.62 0 0 0 0 0 0 0 0

> <atom.prop.CLASS>
GENA NCLA PRPC GEND PRPC PRPC GEND NCLA NCLA NCLA NCLA NCLA NCLA NCLA NCLA

$$$$
31_1
     RDKit          3D

 15 15  0  0  0  0  0  0  0  0999 V2000
   24.8861    5.1924   -7.9170 O   0  0  0  0  0  0  0  0  0  0  0  0
   24.4251    6.3086   -8.1113 C   0  0  0  0  0  0  0  0  0  0  0  0
   22.9518    6.6446   -7.7566 C   0  0  0  0  0  0  0  0  0  0  0  0
   22.6034    8.1066   -7.7267 N   0  0  0  0  0  0  0  0  0  0  0  0
   23.2937    8.8121   -8.8391 C   0  0  0  0  0  0  0  0  0  0  0  0
   24.8198    8.6511   -8.7205 C   0  0  0  0  0  0  0  0  0  0  0  0
   25.1787    7.2335   -8.7068 N   0  0  0  0  0  0  0  0  0  0  0  0
   22.7229    6.1941   -6.7900 H   0  0  0  0  0  0  0  0  0  0  0  0
   22.3289    6.1582   -8.5065 H   0  0  0  0  0  0  0  0  0  0  0  0
   22.9021    8.4975   -6.8411 H   0  0  0  0  0  0  0  0  0  0  0  0
   23.0417    9.8740   -8.8143 H   0  0  0  0  0  0  0  0  0  0  0  0
   22.9645    8.4037   -9.7972 H   0  0  0  0  0  0  0  0  0  0  0  0
   25.1589    9.1251   -7.7980 H   0  0  0  0  0  0  0  0  0  0  0  0
   25.2976    9.1454   -9.5681 H   0  0  0  0  0  0  0  0  0  0  0  0
   26.1093    6.9446   -8.9595 H   0  0  0  0  0  0  0  0  0  0  0  0
  1  2  2  0
  2  3  1  0
  2  7  1  0
  3  4  1  0
  3  8  1  0
  3  9  1  0
  4  5  1  0
  4 10  1  0
  5  6  1  0
  5 11  1  0
  5 12  1  0
  6  7  1  0
  6 13  1  0
  6 14  1  0
  7 15  1  0
M  END
> <intraLJ>
0.615     

> <intraEL>
3.232     

> <intraDihe>
15.833    

> <interLJ>
0.000     

> <interEJ>
0.000     

> <gridLJ>
-3.462    

> <gridEL>
0.000     

> <totalE>
16.218    

> <LGFE>
-3.462  

> <LE>
-0.495  

> <SMILES>
O=C1CNCCN1

> <atom.dprop.GFE>
-0.85 0 -0.38 -1.3 -0.19 -0.37 -0.4 0 0 0 0 0 0 0 0

> <atom.prop.CLASS>
GENA NCLA PRPC GEND PRPC PRPC GEND NCLA NCLA NCLA NCLA NCLA NCLA NCLA NCLA

$$$$
31_1
     RDKit          3D

 15 15  0  0  0  0  0  0  0  0999 V2000
   18.6704   -0.9209  -36.4786 O   0  0  0  0  0  0  0  0  0  0  0  0
   18.3392   -1.7393  -35.6320 C   0  0  0  0  0  0  0  0  0  0  0  0
   19.3875   -2.6498  -34.9382 C   0  0  0  0  0  0  0  0  0  0  0  0
   18.9175   -3.3634  -33.7014 N   0  0  0  0  0  0  0  0  0  0  0  0
   17.5175   -3.8284  -33.8891 C   0  0  0  0  0  0  0  0  0  0  0  0
   16.5836   -2.6389  -34.1750 C   0  0  0  0  0  0  0  0  0  0  0  0
   17.0460   -1.9051  -35.3525 N   0  0  0  0  0  0  0  0  0  0  0  0
   20.2618   -2.0426  -34.7004 H   0  0  0  0  0  0  0  0  0  0  0  0
   19.6902   -3.3964  -35.6716 H   0  0  0  0  0  0  0  0  0  0  0  0
   18.9592   -2.7236  -32.9170 H   0  0  0  0  0  0  0  0  0  0  0  0
   17.1770   -4.3440  -32.9891 H   0  0  0  0  0  0  0  0  0  0  0  0
   17.4694   -4.5297  -34.7252 H   0  0  0  0  0  0  0  0  0  0  0  0
   16.5740   -1.9754  -33.3088 H   0  0  0  0  0  0  0  0  0  0  0  0
   15.5723   -3.0122  -34.3454 H   0  0  0  0  0  0  0  0  0  0  0  0
   16.4077   -1.3226  -35.8686 H   0  0  0  0  0  0  0  0  0  0  0  0
  1  2  2  0
  2  3  1  0
  2  7  1  0
  3  4  1  0
  3  8  1  0
  3  9  1  0
  4  5  1  0
  4 10  1  0
  5  6  1  0
  5 11  1  0
  5 12  1  0
  6  7  1  0
  6 13  1  0
  6 14  1  0
  7 15  1  0
M  END
> <intraLJ>
0.615     

> <intraEL>
3.232     

> <intraDihe>
15.833    

> <interLJ>
0.000     

> <interEJ>
0.000     

> <gridLJ>
-3.425    

> <gridEL>
0.000     

> <totalE>
16.255    

> <LGFE>
-3.425  

> <LE>
-0.489  

> <SMILES>
O=C1CNCCN1

> <atom.dprop.GFE>
-1.4 0 -0.33 -0.47 -0.32 -0.43 -0.51 0 0 0 0 0 0 0 0

> <atom.prop.CLASS>
GENA NCLA PRPC GEND PRPC PRPC GEND NCLA NCLA NCLA NCLA NCLA NCLA NCLA NCLA

$$$$
31_1
     RDKit          3D

 15 15  0  0  0  0  0  0  0  0999 V2000
    9.8498   12.1724  -36.1902 O   0  0  0  0  0  0  0  0  0  0  0  0
    8.8080   12.7222  -35.8608 C   0  0  0  0  0  0  0  0  0  0  0  0
    8.8127   13.9702  -34.9378 C   0  0  0  0  0  0  0  0  0  0  0  0
    7.5249   14.7434  -34.8770 N   0  0  0  0  0  0  0  0  0  0  0  0
    6.3724   13.8036  -34.8730 C   0  0  0  0  0  0  0  0  0  0  0  0
    6.3803   12.9289  -36.1394 C   0  0  0  0  0  0  0  0  0  0  0  0
    7.6425   12.1972  -36.2402 N   0  0  0  0  0  0  0  0  0  0  0  0
    9.6201   14.6289  -35.2597 H   0  0  0  0  0  0  0  0  0  0  0  0
    9.0499   13.6184  -33.9343 H   0  0  0  0  0  0  0  0  0  0  0  0
    7.4659   15.3477  -35.6879 H   0  0  0  0  0  0  0  0  0  0  0  0
    5.4381   14.3668  -34.8315 H   0  0  0  0  0  0  0  0  0  0  0  0
    6.4237   13.1588  -33.9928 H   0  0  0  0  0  0  0  0  0  0  0  0
    6.2541   13.5668  -37.0156 H   0  0  0  0  0  0  0  0  0  0  0  0
    5.5476   12.2249  -36.0920 H   0  0  0  0  0  0  0  0  0  0  0  0
    7.6990   11.3598  -36.7959 H   0  0  0  0  0  0  0  0  0  0  0  0
  1  2  2  0
  2  3  1  0
  2  7  1  0
  3  4  1  0
  3  8  1  0
  3  9  1  0
  4  5  1  0
  4 10  1  0
  5  6  1  0
  5 11  1  0
  5 12  1  0
  6  7  1  0
  6 13  1  0
  6 14  1  0
  7 15  1  0
M  END
> <intraLJ>
0.615     

> <intraEL>
3.232     

> <intraDihe>
15.833    

> <interLJ>
0.000     

> <interEJ>
0.000     

> <gridLJ>
-3.354    

> <gridEL>
0.000     

> <totalE>
16.326    

> <LGFE>
-3.354  

> <LE>
-0.479  

> <SMILES>
O=C1CNCCN1

> <atom.dprop.GFE>
-1.6 0 -0.32 -0.29 -0.2 -0.24 -0.75 0 0 0 0 0 0 0 0

> <atom.prop.CLASS>
GENA NCLA PRPC GEND PRPC PRPC GEND NCLA NCLA NCLA NCLA NCLA NCLA NCLA NCLA

$$$$
31_1
     RDKit          3D

 15 15  0  0  0  0  0  0  0  0999 V2000
  -16.4536   -5.9498   -7.1189 O   0  0  0  0  0  0  0  0  0  0  0  0
  -16.7427   -7.1377   -7.1561 C   0  0  0  0  0  0  0  0  0  0  0  0
  -16.9656   -7.8705   -8.5062 C   0  0  0  0  0  0  0  0  0  0  0  0
  -16.9838   -9.3722   -8.4399 N   0  0  0  0  0  0  0  0  0  0  0  0
  -17.6974   -9.8140   -7.2123 C   0  0  0  0  0  0  0  0  0  0  0  0
  -17.0079   -9.2583   -5.9534 C   0  0  0  0  0  0  0  0  0  0  0  0
  -16.9429   -7.7987   -6.0155 N   0  0  0  0  0  0  0  0  0  0  0  0
  -16.1922   -7.5444   -9.2026 H   0  0  0  0  0  0  0  0  0  0  0  0
  -17.9262   -7.5320   -8.8930 H   0  0  0  0  0  0  0  0  0  0  0  0
  -16.0296   -9.7117   -8.4172 H   0  0  0  0  0  0  0  0  0  0  0  0
  -17.7074  -10.9046   -7.1645 H   0  0  0  0  0  0  0  0  0  0  0  0
  -18.7312   -9.4623   -7.2384 H   0  0  0  0  0  0  0  0  0  0  0  0
  -15.9991   -9.6689   -5.8874 H   0  0  0  0  0  0  0  0  0  0  0  0
  -17.5730   -9.5662   -5.0718 H   0  0  0  0  0  0  0  0  0  0  0  0
  -16.8331   -7.2607   -5.1719 H   0  0  0  0  0  0  0  0  0  0  0  0
  1  2  2  0
  2  3  1  0
  2  7  1  0
  3  4  1  0
  3  8  1  0
  3  9  1  0
  4  5  1  0
  4 10  1  0
  5  6  1  0
  5 11  1  0
  5 12  1  0
  6  7  1  0
  6 13  1  0
  6 14  1  0
  7 15  1  0
M  END
> <intraLJ>
0.615     

> <intraEL>
3.232     

> <intraDihe>
15.833    

> <interLJ>
0.000     

> <interEJ>
0.000     

> <gridLJ>
-3.352    

> <gridEL>
0.000     

> <totalE>
16.328    

> <LGFE>
-3.352  

> <LE>
-0.479  

> <SMILES>
O=C1CNCCN1

> <atom.dprop.GFE>
-1.5 0 -0.15 -0.11 -0.1 -0.13 -1.4 0 0 0 0 0 0 0 0

> <atom.prop.CLASS>
GENA NCLA PRPC GEND PRPC PRPC GEND NCLA NCLA NCLA NCLA NCLA NCLA NCLA NCLA

$$$$
31_1
     RDKit          3D

 15 15  0  0  0  0  0  0  0  0999 V2000
   16.6286   15.3964  -28.7631 O   0  0  0  0  0  0  0  0  0  0  0  0
   15.4919   15.8479  -28.7510 C   0  0  0  0  0  0  0  0  0  0  0  0
   14.3614   15.2064  -29.5996 C   0  0  0  0  0  0  0  0  0  0  0  0
   12.9618   15.6305  -29.2518 N   0  0  0  0  0  0  0  0  0  0  0  0
   12.9392   17.0835  -28.9359 C   0  0  0  0  0  0  0  0  0  0  0  0
   13.8734   17.3970  -27.7536 C   0  0  0  0  0  0  0  0  0  0  0  0
   15.2347   16.9554  -28.0544 N   0  0  0  0  0  0  0  0  0  0  0  0
   14.4465   14.1222  -29.5165 H   0  0  0  0  0  0  0  0  0  0  0  0
   14.5547   15.4771  -30.6371 H   0  0  0  0  0  0  0  0  0  0  0  0
   12.6498   15.1039  -28.4446 H   0  0  0  0  0  0  0  0  0  0  0  0
   11.9226   17.3892  -28.6810 H   0  0  0  0  0  0  0  0  0  0  0  0
   13.2614   17.6569  -29.8080 H   0  0  0  0  0  0  0  0  0  0  0  0
   13.5084   16.8828  -26.8631 H   0  0  0  0  0  0  0  0  0  0  0  0
   13.8660   18.4726  -27.5685 H   0  0  0  0  0  0  0  0  0  0  0  0
   16.0168   17.3561  -27.5636 H   0  0  0  0  0  0  0  0  0  0  0  0
  1  2  2  0
  2  3  1  0
  2  7  1  0
  3  4  1  0
  3  8  1  0
  3  9  1  0
  4  5  1  0
  4 10  1  0
  5  6  1  0
  5 11  1  0
  5 12  1  0
  6  7  1  0
  6 13  1  0
  6 14  1  0
  7 15  1  0
M  END
> <intraLJ>
0.615     

> <intraEL>
3.232     

> <intraDihe>
15.833    

> <interLJ>
0.000     

> <interEJ>
0.000     

> <gridLJ>
-3.262    

> <gridEL>
0.000     

> <totalE>
16.418    

> <LGFE>
-3.262  

> <LE>
-0.466  

> <SMILES>
O=C1CNCCN1

> <atom.dprop.GFE>
-0.56 0 -0.37 -1.7 -0.2 -0.053 -0.42 0 0 0 0 0 0 0 0

> <atom.prop.CLASS>
GENA NCLA PRPC GEND PRPC PRPC GEND NCLA NCLA NCLA NCLA NCLA NCLA NCLA NCLA

$$$$
31_1
     RDKit          3D

 15 15  0  0  0  0  0  0  0  0999 V2000
   22.8698   15.0888   -4.0310 O   0  0  0  0  0  0  0  0  0  0  0  0
   21.6975   15.0597   -4.3787 C   0  0  0  0  0  0  0  0  0  0  0  0
   20.6496   16.0234   -3.7602 C   0  0  0  0  0  0  0  0  0  0  0  0
   19.3402   16.1224   -4.4917 N   0  0  0  0  0  0  0  0  0  0  0  0
   18.9349   14.7789   -4.9840 C   0  0  0  0  0  0  0  0  0  0  0  0
   20.0030   14.2021   -5.9302 C   0  0  0  0  0  0  0  0  0  0  0  0
   21.2963   14.1343   -5.2509 N   0  0  0  0  0  0  0  0  0  0  0  0
   21.1011   17.0132   -3.6825 H   0  0  0  0  0  0  0  0  0  0  0  0
   20.4526   15.6671   -2.7496 H   0  0  0  0  0  0  0  0  0  0  0  0
   19.4498   16.7519   -5.2779 H   0  0  0  0  0  0  0  0  0  0  0  0
   17.9851   14.8532   -5.5172 H   0  0  0  0  0  0  0  0  0  0  0  0
   18.8016   14.0998   -4.1389 H   0  0  0  0  0  0  0  0  0  0  0  0
   20.0833   14.8411   -6.8110 H   0  0  0  0  0  0  0  0  0  0  0  0
   19.6980   13.2026   -6.2454 H   0  0  0  0  0  0  0  0  0  0  0  0
   22.0088   13.5047   -5.5810 H   0  0  0  0  0  0  0  0  0  0  0  0
  1  2  2  0
  2  3  1  0
  2  7  1  0
  3  4  1  0
  3  8  1  0
  3  9  1  0
  4  5  1  0
  4 10  1  0
  5  6  1  0
  5 11  1  0
  5 12  1  0
  6  7  1  0
  6 13  1  0
  6 14  1  0
  7 15  1  0
M  END
> <intraLJ>
0.615     

> <intraEL>
3.232     

> <intraDihe>
15.833    

> <interLJ>
0.000     

> <interEJ>
0.000     

> <gridLJ>
-3.289    

> <gridEL>
0.000     

> <totalE>
16.391    

> <LGFE>
-3.289  

> <LE>
-0.470  

> <SMILES>
O=C1CNCCN1

> <atom.dprop.GFE>
-0.93 0 -0.57 -0.18 -0.67 -0.46 -0.49 0 0 0 0 0 0 0 0

> <atom.prop.CLASS>
GENA NCLA PRPC GEND PRPC PRPC GEND NCLA NCLA NCLA NCLA NCLA NCLA NCLA NCLA

$$$$
31_1
     RDKit          3D

 15 15  0  0  0  0  0  0  0  0999 V2000
    9.9341    8.6146  -41.5355 O   0  0  0  0  0  0  0  0  0  0  0  0
   10.8903    8.0051  -41.9940 C   0  0  0  0  0  0  0  0  0  0  0  0
   11.9053    7.2838  -41.0672 C   0  0  0  0  0  0  0  0  0  0  0  0
   12.8279    6.3075  -41.7421 N   0  0  0  0  0  0  0  0  0  0  0  0
   13.2573    6.8477  -43.0594 C   0  0  0  0  0  0  0  0  0  0  0  0
   12.0392    7.1044  -43.9645 C   0  0  0  0  0  0  0  0  0  0  0  0
   11.1074    8.0217  -43.3095 N   0  0  0  0  0  0  0  0  0  0  0  0
   11.3467    6.7755  -40.2804 H   0  0  0  0  0  0  0  0  0  0  0  0
   12.5096    8.0598  -40.5984 H   0  0  0  0  0  0  0  0  0  0  0  0
   12.3366    5.4322  -41.8792 H   0  0  0  0  0  0  0  0  0  0  0  0
   13.9250    6.1362  -43.5492 H   0  0  0  0  0  0  0  0  0  0  0  0
   13.8000    7.7847  -42.9160 H   0  0  0  0  0  0  0  0  0  0  0  0
   11.5393    6.1563  -44.1689 H   0  0  0  0  0  0  0  0  0  0  0  0
   12.3801    7.5347  -44.9079 H   0  0  0  0  0  0  0  0  0  0  0  0
   10.4451    8.5463  -43.8566 H   0  0  0  0  0  0  0  0  0  0  0  0
  1  2  2  0
  2  3  1  0
  2  7  1  0
  3  4  1  0
  3  8  1  0
  3  9  1  0
  4  5  1  0
  4 10  1  0
  5  6  1  0
  5 11  1  0
  5 12  1  0
  6  7  1  0
  6 13  1  0
  6 14  1  0
  7 15  1  0
M  END
> <intraLJ>
0.615     

> <intraEL>
3.232     

> <intraDihe>
15.833    

> <interLJ>
0.000     

> <interEJ>
0.000     

> <gridLJ>
-3.260    

> <gridEL>
0.000     

> <totalE>
16.420    

> <LGFE>
-3.260  

> <LE>
-0.466  

> <SMILES>
O=C1CNCCN1

> <atom.dprop.GFE>
-1.2 0 -0.24 -0.6 -0.31 -0.21 -0.73 0 0 0 0 0 0 0 0

> <atom.prop.CLASS>
GENA NCLA PRPC GEND PRPC PRPC GEND NCLA NCLA NCLA NCLA NCLA NCLA NCLA NCLA

$$$$
31_1
     RDKit          3D

 15 15  0  0  0  0  0  0  0  0999 V2000
  -40.4520    5.5850   22.3058 O   0  0  0  0  0  0  0  0  0  0  0  0
  -40.4856    6.0178   21.1623 C   0  0  0  0  0  0  0  0  0  0  0  0
  -39.9425    7.4310   20.8196 C   0  0  0  0  0  0  0  0  0  0  0  0
  -39.7329    7.7144   19.3583 N   0  0  0  0  0  0  0  0  0  0  0  0
  -40.8393    7.1160   18.5650 C   0  0  0  0  0  0  0  0  0  0  0  0
  -40.9028    5.5938   18.7832 C   0  0  0  0  0  0  0  0  0  0  0  0
  -41.0662    5.2935   20.2051 N   0  0  0  0  0  0  0  0  0  0  0  0
  -39.0054    7.5757   21.3585 H   0  0  0  0  0  0  0  0  0  0  0  0
  -40.6645    8.1483   21.2086 H   0  0  0  0  0  0  0  0  0  0  0  0
  -38.8509    7.3089   19.0682 H   0  0  0  0  0  0  0  0  0  0  0  0
  -40.6841    7.3205   17.5039 H   0  0  0  0  0  0  0  0  0  0  0  0
  -41.7914    7.5601   18.8642 H   0  0  0  0  0  0  0  0  0  0  0  0
  -39.9807    5.1409   18.4154 H   0  0  0  0  0  0  0  0  0  0  0  0
  -41.7450    5.1875   18.2202 H   0  0  0  0  0  0  0  0  0  0  0  0
  -41.4451    4.4071   20.4948 H   0  0  0  0  0  0  0  0  0  0  0  0
  1  2  2  0
  2  3  1  0
  2  7  1  0
  3  4  1  0
  3  8  1  0
  3  9  1  0
  4  5  1  0
  4 10  1  0
  5  6  1  0
  5 11  1  0
  5 12  1  0
  6  7  1  0
  6 13  1  0
  6 14  1  0
  7 15  1  0
M  END
> <intraLJ>
0.615     

> <intraEL>
3.232     

> <intraDihe>
15.833    

> <interLJ>
0.000     

> <interEJ>
0.000     

> <gridLJ>
-3.231    

> <gridEL>
0.000     

> <totalE>
16.449    

> <LGFE>
-3.231  

> <LE>
-0.462  

> <SMILES>
O=C1CNCCN1

> <atom.dprop.GFE>
-0.4 0 -0.5 -0.74 -0.5 -0.49 -0.6 0 0 0 0 0 0 0 0

> <atom.prop.CLASS>
GENA NCLA PRPC GEND PRPC PRPC GEND NCLA NCLA NCLA NCLA NCLA NCLA NCLA NCLA

$$$$
31_1
     RDKit          3D

 15 15  0  0  0  0  0  0  0  0999 V2000
  -25.0537    7.3465   10.4018 O   0  0  0  0  0  0  0  0  0  0  0  0
  -24.6446    7.7237   11.4910 C   0  0  0  0  0  0  0  0  0  0  0  0
  -25.4744    7.5020   12.7840 C   0  0  0  0  0  0  0  0  0  0  0  0
  -24.7351    7.7012   14.0776 N   0  0  0  0  0  0  0  0  0  0  0  0
  -23.8154    8.8637   13.9588 C   0  0  0  0  0  0  0  0  0  0  0  0
  -22.8008    8.6399   12.8233 C   0  0  0  0  0  0  0  0  0  0  0  0
  -23.4996    8.4035   11.5606 N   0  0  0  0  0  0  0  0  0  0  0  0
  -25.8918    6.4949   12.7523 H   0  0  0  0  0  0  0  0  0  0  0  0
  -26.3040    8.2075   12.7502 H   0  0  0  0  0  0  0  0  0  0  0  0
  -24.1998    6.8657   14.2821 H   0  0  0  0  0  0  0  0  0  0  0  0
  -23.2774    9.0052   14.8983 H   0  0  0  0  0  0  0  0  0  0  0  0
  -24.3891    9.7699   13.7522 H   0  0  0  0  0  0  0  0  0  0  0  0
  -22.1773    7.7777   13.0654 H   0  0  0  0  0  0  0  0  0  0  0  0
  -22.1645    9.5222   12.7343 H   0  0  0  0  0  0  0  0  0  0  0  0
  -23.0292    8.5609   10.6847 H   0  0  0  0  0  0  0  0  0  0  0  0
  1  2  2  0
  2  3  1  0
  2  7  1  0
  3  4  1  0
  3  8  1  0
  3  9  1  0
  4  5  1  0
  4 10  1  0
  5  6  1  0
  5 11  1  0
  5 12  1  0
  6  7  1  0
  6 13  1  0
  6 14  1  0
  7 15  1  0
M  END
> <intraLJ>
0.615     

> <intraEL>
3.232     

> <intraDihe>
15.833    

> <interLJ>
0.000     

> <interEJ>
0.000     

> <gridLJ>
-3.231    

> <gridEL>
0.000     

> <totalE>
16.449    

> <LGFE>
-3.231  

> <LE>
-0.462  

> <SMILES>
O=C1CNCCN1

> <atom.dprop.GFE>
-0.5 0 -0.49 -0.84 -0.52 -0.53 -0.34 0 0 0 0 0 0 0 0

> <atom.prop.CLASS>
GENA NCLA PRPC GEND PRPC PRPC GEND NCLA NCLA NCLA NCLA NCLA NCLA NCLA NCLA

$$$$
31_1
     RDKit          3D

 15 15  0  0  0  0  0  0  0  0999 V2000
  -26.2939  -17.8622   10.3786 O   0  0  0  0  0  0  0  0  0  0  0  0
  -25.8000  -17.5903    9.2932 C   0  0  0  0  0  0  0  0  0  0  0  0
  -25.2863  -18.7030    8.3405 C   0  0  0  0  0  0  0  0  0  0  0  0
  -25.0152  -18.2777    6.9244 N   0  0  0  0  0  0  0  0  0  0  0  0
  -24.3942  -16.9265    6.9141 C   0  0  0  0  0  0  0  0  0  0  0  0
  -25.3214  -15.8973    7.5848 C   0  0  0  0  0  0  0  0  0  0  0  0
  -25.6315  -16.3122    8.9524 N   0  0  0  0  0  0  0  0  0  0  0  0
  -26.0118  -19.5173    8.3455 H   0  0  0  0  0  0  0  0  0  0  0  0
  -24.3587  -19.0808    8.7694 H   0  0  0  0  0  0  0  0  0  0  0  0
  -25.8910  -18.2515    6.4159 H   0  0  0  0  0  0  0  0  0  0  0  0
  -24.2005  -16.6181    5.8848 H   0  0  0  0  0  0  0  0  0  0  0  0
  -23.4424  -16.9525    7.4493 H   0  0  0  0  0  0  0  0  0  0  0  0
  -26.2436  -15.8165    7.0071 H   0  0  0  0  0  0  0  0  0  0  0  0
  -24.8257  -14.9249    7.5968 H   0  0  0  0  0  0  0  0  0  0  0  0
  -25.9376  -15.6338    9.6300 H   0  0  0  0  0  0  0  0  0  0  0  0
  1  2  2  0
  2  3  1  0
  2  7  1  0
  3  4  1  0
  3  8  1  0
  3  9  1  0
  4  5  1  0
  4 10  1  0
  5  6  1  0
  5 11  1  0
  5 12  1  0
  6  7  1  0
  6 13  1  0
  6 14  1  0
  7 15  1  0
M  END
> <intraLJ>
0.615     

> <intraEL>
3.232     

> <intraDihe>
15.833    

> <interLJ>
0.000     

> <interEJ>
0.000     

> <gridLJ>
-3.016    

> <gridEL>
0.000     

> <totalE>
16.664    

> <LGFE>
-3.016  

> <LE>
-0.431  

> <SMILES>
O=C1CNCCN1

> <atom.dprop.GFE>
-0.88 0 -0.28 -0.47 -0.43 -0.33 -0.63 0 0 0 0 0 0 0 0

> <atom.prop.CLASS>
GENA NCLA PRPC GEND PRPC PRPC GEND NCLA NCLA NCLA NCLA NCLA NCLA NCLA NCLA

$$$$
31_1
     RDKit          3D

 15 15  0  0  0  0  0  0  0  0999 V2000
    8.9438   12.3816  -36.5564 O   0  0  0  0  0  0  0  0  0  0  0  0
    9.4964   12.8908  -37.5215 C   0  0  0  0  0  0  0  0  0  0  0  0
    9.8165   14.4092  -37.5580 C   0  0  0  0  0  0  0  0  0  0  0  0
   10.7779   14.8494  -38.6265 N   0  0  0  0  0  0  0  0  0  0  0  0
   10.5106   14.1019  -39.8840 C   0  0  0  0  0  0  0  0  0  0  0  0
   10.6612   12.5870  -39.6581 C   0  0  0  0  0  0  0  0  0  0  0  0
    9.7626   12.1432  -38.5930 N   0  0  0  0  0  0  0  0  0  0  0  0
   10.1992   14.7003  -36.5790 H   0  0  0  0  0  0  0  0  0  0  0  0
    8.8702   14.9265  -37.7129 H   0  0  0  0  0  0  0  0  0  0  0  0
   11.7235   14.6611  -38.3155 H   0  0  0  0  0  0  0  0  0  0  0  0
   11.2113   14.4210  -40.6581 H   0  0  0  0  0  0  0  0  0  0  0  0
    9.4966   14.3126  -40.2313 H   0  0  0  0  0  0  0  0  0  0  0  0
   11.6940   12.3672  -39.3832 H   0  0  0  0  0  0  0  0  0  0  0  0
   10.4231   12.0626  -40.5852 H   0  0  0  0  0  0  0  0  0  0  0  0
    9.4882   11.1766  -38.5325 H   0  0  0  0  0  0  0  0  0  0  0  0
  1  2  2  0
  2  3  1  0
  2  7  1  0
  3  4  1  0
  3  8  1  0
  3  9  1  0
  4  5  1  0
  4 10  1  0
  5  6  1  0
  5 11  1  0
  5 12  1  0
  6  7  1  0
  6 13  1  0
  6 14  1  0
  7 15  1  0
M  END
> <intraLJ>
0.615     

> <intraEL>
3.232     

> <intraDihe>
15.833    

> <interLJ>
0.000     

> <interEJ>
0.000     

> <gridLJ>
-2.920    

> <gridEL>
0.000     

> <totalE>
16.760    

> <LGFE>
-2.920  

> <LE>
-0.417  

> <SMILES>
O=C1CNCCN1

> <atom.dprop.GFE>
-1.6 0 -0.22 -0.23 -0.16 -0.2 -0.56 0 0 0 0 0 0 0 0

> <atom.prop.CLASS>
GENA NCLA PRPC GEND PRPC PRPC GEND NCLA NCLA NCLA NCLA NCLA NCLA NCLA NCLA

$$$$
31_1
     RDKit          3D

 15 15  0  0  0  0  0  0  0  0999 V2000
    3.0817    8.1045  -28.3184 O   0  0  0  0  0  0  0  0  0  0  0  0
    2.6861    8.1518  -27.1620 C   0  0  0  0  0  0  0  0  0  0  0  0
    1.6342    7.1426  -26.6286 C   0  0  0  0  0  0  0  0  0  0  0  0
    1.4794    7.0879  -25.1344 N   0  0  0  0  0  0  0  0  0  0  0  0
    1.5667    8.4602  -24.5680 C   0  0  0  0  0  0  0  0  0  0  0  0
    2.9198    9.1061  -24.9151 C   0  0  0  0  0  0  0  0  0  0  0  0
    3.1098    9.1332  -26.3649 N   0  0  0  0  0  0  0  0  0  0  0  0
    1.8903    6.1521  -27.0065 H   0  0  0  0  0  0  0  0  0  0  0  0
    0.6765    7.4274  -27.0631 H   0  0  0  0  0  0  0  0  0  0  0  0
    2.2201    6.5147  -24.7481 H   0  0  0  0  0  0  0  0  0  0  0  0
    1.4567    8.4182  -23.4826 H   0  0  0  0  0  0  0  0  0  0  0  0
    0.7615    9.0787  -24.9707 H   0  0  0  0  0  0  0  0  0  0  0  0
    3.7212    8.5298  -24.4500 H   0  0  0  0  0  0  0  0  0  0  0  0
    2.9413   10.1234  -24.5203 H   0  0  0  0  0  0  0  0  0  0  0  0
    3.7528    9.7876  -26.7789 H   0  0  0  0  0  0  0  0  0  0  0  0
  1  2  2  0
  2  3  1  0
  2  7  1  0
  3  4  1  0
  3  8  1  0
  3  9  1  0
  4  5  1  0
  4 10  1  0
  5  6  1  0
  5 11  1  0
  5 12  1  0
  6  7  1  0
  6 13  1  0
  6 14  1  0
  7 15  1  0
M  END
> <intraLJ>
0.615     

> <intraEL>
3.232     

> <intraDihe>
15.833    

> <interLJ>
0.000     

> <interEJ>
0.000     

> <gridLJ>
-2.986    

> <gridEL>
0.000     

> <totalE>
16.694    

> <LGFE>
-2.986  

> <LE>
-0.427  

> <SMILES>
O=C1CNCCN1

> <atom.dprop.GFE>
-1.3 0 -0.13 -0.49 -0.25 -0.31 -0.47 0 0 0 0 0 0 0 0

> <atom.prop.CLASS>
GENA NCLA PRPC GEND PRPC PRPC GEND NCLA NCLA NCLA NCLA NCLA NCLA NCLA NCLA

$$$$
31_1
     RDKit          3D

 15 15  0  0  0  0  0  0  0  0999 V2000
  -20.4901    6.4950   -8.9137 O   0  0  0  0  0  0  0  0  0  0  0  0
  -21.5096    6.0468   -9.4196 C   0  0  0  0  0  0  0  0  0  0  0  0
  -22.8622    6.0659   -8.6582 C   0  0  0  0  0  0  0  0  0  0  0  0
  -24.0853    5.8020   -9.4913 N   0  0  0  0  0  0  0  0  0  0  0  0
  -23.7947    4.7403  -10.4913 C   0  0  0  0  0  0  0  0  0  0  0  0
  -22.6352    5.1630  -11.4110 C   0  0  0  0  0  0  0  0  0  0  0  0
  -21.4445    5.4641  -10.6171 N   0  0  0  0  0  0  0  0  0  0  0  0
  -22.9596    7.0316   -8.1609 H   0  0  0  0  0  0  0  0  0  0  0  0
  -22.7998    5.2989   -7.8869 H   0  0  0  0  0  0  0  0  0  0  0  0
  -24.3470    6.6555   -9.9704 H   0  0  0  0  0  0  0  0  0  0  0  0
  -24.6832    4.5519  -11.0971 H   0  0  0  0  0  0  0  0  0  0  0  0
  -23.5255    3.8136   -9.9796 H   0  0  0  0  0  0  0  0  0  0  0  0
  -22.9322    6.0467  -11.9780 H   0  0  0  0  0  0  0  0  0  0  0  0
  -22.4192    4.3518  -12.1085 H   0  0  0  0  0  0  0  0  0  0  0  0
  -20.5325    5.4362  -11.0422 H   0  0  0  0  0  0  0  0  0  0  0  0
  1  2  2  0
  2  3  1  0
  2  7  1  0
  3  4  1  0
  3  8  1  0
  3  9  1  0
  4  5  1  0
  4 10  1  0
  5  6  1  0
  5 11  1  0
  5 12  1  0
  6  7  1  0
  6 13  1  0
  6 14  1  0
  7 15  1  0
M  END
> <intraLJ>
0.615     

> <intraEL>
3.232     

> <intraDihe>
15.833    

> <interLJ>
0.000     

> <interEJ>
0.000     

> <gridLJ>
-2.922    

> <gridEL>
0.000     

> <totalE>
16.758    

> <LGFE>
-2.922  

> <LE>
-0.417  

> <SMILES>
O=C1CNCCN1

> <atom.dprop.GFE>
-0.82 0 -0.39 -0.36 -0.3 -0.34 -0.73 0 0 0 0 0 0 0 0

> <atom.prop.CLASS>
GENA NCLA PRPC GEND PRPC PRPC GEND NCLA NCLA NCLA NCLA NCLA NCLA NCLA NCLA

$$$$
31_1
     RDKit          3D

 15 15  0  0  0  0  0  0  0  0999 V2000
   21.8954   -3.1926  -26.7925 O   0  0  0  0  0  0  0  0  0  0  0  0
   22.1410   -3.5747  -27.9282 C   0  0  0  0  0  0  0  0  0  0  0  0
   21.2873   -4.6776  -28.6094 C   0  0  0  0  0  0  0  0  0  0  0  0
   21.4698   -4.8221  -30.0945 N   0  0  0  0  0  0  0  0  0  0  0  0
   22.9049   -4.6516  -30.4449 C   0  0  0  0  0  0  0  0  0  0  0  0
   23.4112   -3.2668  -30.0032 C   0  0  0  0  0  0  0  0  0  0  0  0
   23.2061   -3.0886  -28.5663 N   0  0  0  0  0  0  0  0  0  0  0  0
   20.2376   -4.4819  -28.3870 H   0  0  0  0  0  0  0  0  0  0  0  0
   21.5574   -5.6213  -28.1366 H   0  0  0  0  0  0  0  0  0  0  0  0
   20.9203   -4.1119  -30.5637 H   0  0  0  0  0  0  0  0  0  0  0  0
   23.0352   -4.7541  -31.5240 H   0  0  0  0  0  0  0  0  0  0  0  0
   23.5004   -5.4237  -29.9526 H   0  0  0  0  0  0  0  0  0  0  0  0
   22.8671   -2.4956  -30.5507 H   0  0  0  0  0  0  0  0  0  0  0  0
   24.4738   -3.1839  -30.2382 H   0  0  0  0  0  0  0  0  0  0  0  0
   23.7516   -2.4129  -28.0572 H   0  0  0  0  0  0  0  0  0  0  0  0
  1  2  2  0
  2  3  1  0
  2  7  1  0
  3  4  1  0
  3  8  1  0
  3  9  1  0
  4  5  1  0
  4 10  1  0
  5  6  1  0
  5 11  1  0
  5 12  1  0
  6  7  1  0
  6 13  1  0
  6 14  1  0
  7 15  1  0
M  END
> <intraLJ>
0.615     

> <intraEL>
3.232     

> <intraDihe>
15.833    

> <interLJ>
0.000     

> <interEJ>
0.000     

> <gridLJ>
-2.866    

> <gridEL>
0.000     

> <totalE>
16.814    

> <LGFE>
-2.866  

> <LE>
-0.409  

> <SMILES>
O=C1CNCCN1

> <atom.dprop.GFE>
-1.5 0 -0.19 -0.51 -0.048 -0.081 -0.56 0 0 0 0 0 0 0 0

> <atom.prop.CLASS>
GENA NCLA PRPC GEND PRPC PRPC GEND NCLA NCLA NCLA NCLA NCLA NCLA NCLA NCLA

$$$$
31_1
     RDKit          3D

 15 15  0  0  0  0  0  0  0  0999 V2000
  -36.2564   10.0996   16.2581 O   0  0  0  0  0  0  0  0  0  0  0  0
  -36.2614    8.9446   15.8556 C   0  0  0  0  0  0  0  0  0  0  0  0
  -37.4353    7.9829   16.1822 C   0  0  0  0  0  0  0  0  0  0  0  0
  -37.4910    6.7195   15.3696 N   0  0  0  0  0  0  0  0  0  0  0  0
  -36.1160    6.1922   15.1626 C   0  0  0  0  0  0  0  0  0  0  0  0
  -35.2414    7.2272   14.4329 C   0  0  0  0  0  0  0  0  0  0  0  0
  -35.2057    8.4799   15.1867 N   0  0  0  0  0  0  0  0  0  0  0  0
  -38.3694    8.5339   16.0664 H   0  0  0  0  0  0  0  0  0  0  0  0
  -37.3367    7.7116   17.2328 H   0  0  0  0  0  0  0  0  0  0  0  0
  -37.9134    6.9245   14.4719 H   0  0  0  0  0  0  0  0  0  0  0  0
  -36.1582    5.2762   14.5701 H   0  0  0  0  0  0  0  0  0  0  0  0
  -35.6611    5.9561   16.1272 H   0  0  0  0  0  0  0  0  0  0  0  0
  -35.6545    7.4078   13.4392 H   0  0  0  0  0  0  0  0  0  0  0  0
  -34.2303    6.8296   14.3283 H   0  0  0  0  0  0  0  0  0  0  0  0
  -34.4528    9.1332   15.0472 H   0  0  0  0  0  0  0  0  0  0  0  0
  1  2  2  0
  2  3  1  0
  2  7  1  0
  3  4  1  0
  3  8  1  0
  3  9  1  0
  4  5  1  0
  4 10  1  0
  5  6  1  0
  5 11  1  0
  5 12  1  0
  6  7  1  0
  6 13  1  0
  6 14  1  0
  7 15  1  0
M  END
> <intraLJ>
0.615     

> <intraEL>
3.232     

> <intraDihe>
15.833    

> <interLJ>
0.000     

> <interEJ>
0.000     

> <gridLJ>
-2.761    

> <gridEL>
0.000     

> <totalE>
16.920    

> <LGFE>
-2.761  

> <LE>
-0.394  

> <SMILES>
O=C1CNCCN1

> <atom.dprop.GFE>
-0.44 0 -0.24 -0.98 -0.21 -0.35 -0.54 0 0 0 0 0 0 0 0

> <atom.prop.CLASS>
GENA NCLA PRPC GEND PRPC PRPC GEND NCLA NCLA NCLA NCLA NCLA NCLA NCLA NCLA

$$$$
31_1
     RDKit          3D

 15 15  0  0  0  0  0  0  0  0999 V2000
    1.1817    2.6897  -39.5753 O   0  0  0  0  0  0  0  0  0  0  0  0
    1.5947    1.7484  -38.9123 C   0  0  0  0  0  0  0  0  0  0  0  0
    2.4349    0.6148  -39.5591 C   0  0  0  0  0  0  0  0  0  0  0  0
    3.1555   -0.2928  -38.6017 N   0  0  0  0  0  0  0  0  0  0  0  0
    2.2924   -0.5692  -37.4226 C   0  0  0  0  0  0  0  0  0  0  0  0
    1.9226    0.7393  -36.7014 C   0  0  0  0  0  0  0  0  0  0  0  0
    1.2554    1.6548  -37.6262 N   0  0  0  0  0  0  0  0  0  0  0  0
    3.1529    1.0702  -40.2422 H   0  0  0  0  0  0  0  0  0  0  0  0
    1.7472    0.0125  -40.1519 H   0  0  0  0  0  0  0  0  0  0  0  0
    4.0086    0.1611  -38.2975 H   0  0  0  0  0  0  0  0  0  0  0  0
    2.8183   -1.2262  -36.7272 H   0  0  0  0  0  0  0  0  0  0  0  0
    1.3771   -1.0715  -37.7436 H   0  0  0  0  0  0  0  0  0  0  0  0
    2.8312    1.2041  -36.3154 H   0  0  0  0  0  0  0  0  0  0  0  0
    1.2599    0.5106  -35.8649 H   0  0  0  0  0  0  0  0  0  0  0  0
    0.6682    2.3921  -37.2729 H   0  0  0  0  0  0  0  0  0  0  0  0
  1  2  2  0
  2  3  1  0
  2  7  1  0
  3  4  1  0
  3  8  1  0
  3  9  1  0
  4  5  1  0
  4 10  1  0
  5  6  1  0
  5 11  1  0
  5 12  1  0
  6  7  1  0
  6 13  1  0
  6 14  1  0
  7 15  1  0
M  END
> <intraLJ>
0.615     

> <intraEL>
3.232     

> <intraDihe>
15.833    

> <interLJ>
0.000     

> <interEJ>
0.000     

> <gridLJ>
-2.739    

> <gridEL>
0.000     

> <totalE>
16.942    

> <LGFE>
-2.739  

> <LE>
-0.391  

> <SMILES>
O=C1CNCCN1

> <atom.dprop.GFE>
-0.54 0 -0.4 -0.9 -0.37 -0.39 -0.15 0 0 0 0 0 0 0 0

> <atom.prop.CLASS>
GENA NCLA PRPC GEND PRPC PRPC GEND NCLA NCLA NCLA NCLA NCLA NCLA NCLA NCLA

$$$$
31_1
     RDKit          3D

 15 15  0  0  0  0  0  0  0  0999 V2000
  -28.6510   15.1052   16.7507 O   0  0  0  0  0  0  0  0  0  0  0  0
  -28.1228   14.6066   17.7348 C   0  0  0  0  0  0  0  0  0  0  0  0
  -27.0829   13.4623   17.5982 C   0  0  0  0  0  0  0  0  0  0  0  0
  -26.2702   13.1670   18.8278 N   0  0  0  0  0  0  0  0  0  0  0  0
  -27.1303   13.2675   20.0367 C   0  0  0  0  0  0  0  0  0  0  0  0
  -27.7377   14.6766   20.1557 C   0  0  0  0  0  0  0  0  0  0  0  0
  -28.5006   15.0014   18.9511 N   0  0  0  0  0  0  0  0  0  0  0  0
  -26.4172   13.7042   16.7689 H   0  0  0  0  0  0  0  0  0  0  0  0
  -27.6375   12.5639   17.3289 H   0  0  0  0  0  0  0  0  0  0  0  0
  -25.5157   13.8400   18.8924 H   0  0  0  0  0  0  0  0  0  0  0  0
  -26.5378   13.0553   20.9289 H   0  0  0  0  0  0  0  0  0  0  0  0
  -27.9376   12.5339   19.9786 H   0  0  0  0  0  0  0  0  0  0  0  0
  -26.9339   15.4025   20.2888 H   0  0  0  0  0  0  0  0  0  0  0  0
  -28.3923   14.7104   21.0284 H   0  0  0  0  0  0  0  0  0  0  0  0
  -29.2140   15.7110   18.9799 H   0  0  0  0  0  0  0  0  0  0  0  0
  1  2  2  0
  2  3  1  0
  2  7  1  0
  3  4  1  0
  3  8  1  0
  3  9  1  0
  4  5  1  0
  4 10  1  0
  5  6  1  0
  5 11  1  0
  5 12  1  0
  6  7  1  0
  6 13  1  0
  6 14  1  0
  7 15  1  0
M  END
> <intraLJ>
0.615     

> <intraEL>
3.232     

> <intraDihe>
15.833    

> <interLJ>
0.000     

> <interEJ>
0.000     

> <gridLJ>
-2.702    

> <gridEL>
0.000     

> <totalE>
16.978    

> <LGFE>
-2.702  

> <LE>
-0.386  

> <SMILES>
O=C1CNCCN1

> <atom.dprop.GFE>
-0.56 0 -0.46 -0.44 -0.31 -0.33 -0.6 0 0 0 0 0 0 0 0

> <atom.prop.CLASS>
GENA NCLA PRPC GEND PRPC PRPC GEND NCLA NCLA NCLA NCLA NCLA NCLA NCLA NCLA

$$$$
31_1
     RDKit          3D

 15 15  0  0  0  0  0  0  0  0999 V2000
   13.6644   -5.3849  -15.6619 O   0  0  0  0  0  0  0  0  0  0  0  0
   12.6460   -5.3438  -14.9858 C   0  0  0  0  0  0  0  0  0  0  0  0
   11.2625   -5.0597  -15.6299 C   0  0  0  0  0  0  0  0  0  0  0  0
   10.0667   -5.3612  -14.7704 N   0  0  0  0  0  0  0  0  0  0  0  0
   10.3431   -4.9629  -13.3645 C   0  0  0  0  0  0  0  0  0  0  0  0
   11.5664   -5.7189  -12.8160 C   0  0  0  0  0  0  0  0  0  0  0  0
   12.7338   -5.4718  -13.6615 N   0  0  0  0  0  0  0  0  0  0  0  0
   11.1969   -5.6259  -16.5597 H   0  0  0  0  0  0  0  0  0  0  0  0
   11.2452   -4.0001  -15.8832 H   0  0  0  0  0  0  0  0  0  0  0  0
    9.8765   -6.3556  -14.8091 H   0  0  0  0  0  0  0  0  0  0  0  0
    9.4746   -5.1850  -12.7413 H   0  0  0  0  0  0  0  0  0  0  0  0
   10.5350   -3.8887  -13.3151 H   0  0  0  0  0  0  0  0  0  0  0  0
   11.3468   -6.7875  -12.7956 H   0  0  0  0  0  0  0  0  0  0  0  0
   11.7684   -5.3801  -11.7984 H   0  0  0  0  0  0  0  0  0  0  0  0
   13.6616   -5.6044  -13.2944 H   0  0  0  0  0  0  0  0  0  0  0  0
  1  2  2  0
  2  3  1  0
  2  7  1  0
  3  4  1  0
  3  8  1  0
  3  9  1  0
  4  5  1  0
  4 10  1  0
  5  6  1  0
  5 11  1  0
  5 12  1  0
  6  7  1  0
  6 13  1  0
  6 14  1  0
  7 15  1  0
M  END
> <intraLJ>
0.615     

> <intraEL>
3.232     

> <intraDihe>
15.833    

> <interLJ>
0.000     

> <interEJ>
0.000     

> <gridLJ>
-2.697    

> <gridEL>
0.000     

> <totalE>
16.983    

> <LGFE>
-2.697  

> <LE>
-0.385  

> <SMILES>
O=C1CNCCN1

> <atom.dprop.GFE>
-0.61 0 -0.31 -0.62 -0.3 -0.25 -0.6 0 0 0 0 0 0 0 0

> <atom.prop.CLASS>
GENA NCLA PRPC GEND PRPC PRPC GEND NCLA NCLA NCLA NCLA NCLA NCLA NCLA NCLA

$$$$
31_1
     RDKit          3D

 15 15  0  0  0  0  0  0  0  0999 V2000
   19.2316   -4.7801  -12.6339 O   0  0  0  0  0  0  0  0  0  0  0  0
   18.8296   -3.6347  -12.7834 C   0  0  0  0  0  0  0  0  0  0  0  0
   18.2442   -3.1570  -14.1393 C   0  0  0  0  0  0  0  0  0  0  0  0
   17.4889   -1.8578  -14.1042 N   0  0  0  0  0  0  0  0  0  0  0  0
   18.1753   -0.9001  -13.1968 C   0  0  0  0  0  0  0  0  0  0  0  0
   18.2671   -1.4729  -11.7712 C   0  0  0  0  0  0  0  0  0  0  0  0
   18.9639   -2.7585  -11.7872 N   0  0  0  0  0  0  0  0  0  0  0  0
   17.5985   -3.9452  -14.5282 H   0  0  0  0  0  0  0  0  0  0  0  0
   19.0849   -3.0473  -14.8237 H   0  0  0  0  0  0  0  0  0  0  0  0
   16.5505   -2.0323  -13.7646 H   0  0  0  0  0  0  0  0  0  0  0  0
   17.6240    0.0419  -13.1705 H   0  0  0  0  0  0  0  0  0  0  0  0
   19.1830   -0.6975  -13.5664 H   0  0  0  0  0  0  0  0  0  0  0  0
   17.2598   -1.6056  -11.3734 H   0  0  0  0  0  0  0  0  0  0  0  0
   18.8072   -0.7674  -11.1374 H   0  0  0  0  0  0  0  0  0  0  0  0
   19.3954   -3.1107  -10.9488 H   0  0  0  0  0  0  0  0  0  0  0  0
  1  2  2  0
  2  3  1  0
  2  7  1  0
  3  4  1  0
  3  8  1  0
  3  9  1  0
  4  5  1  0
  4 10  1  0
  5  6  1  0
  5 11  1  0
  5 12  1  0
  6  7  1  0
  6 13  1  0
  6 14  1  0
  7 15  1  0
M  END
> <intraLJ>
0.615     

> <intraEL>
3.232     

> <intraDihe>
15.833    

> <interLJ>
0.000     

> <interEJ>
0.000     

> <gridLJ>
-2.648    

> <gridEL>
0.000     

> <totalE>
17.032    

> <LGFE>
-2.648  

> <LE>
-0.378  

> <SMILES>
O=C1CNCCN1

> <atom.dprop.GFE>
-0.59 0 -0.16 -1.1 -0.07 0.073 -0.82 0 0 0 0 0 0 0 0

> <atom.prop.CLASS>
GENA NCLA PRPC GEND PRPC PRPC GEND NCLA NCLA NCLA NCLA NCLA NCLA NCLA NCLA

$$$$
31_1
     RDKit          3D

 15 15  0  0  0  0  0  0  0  0999 V2000
  -16.0789   10.5123   -7.4112 O   0  0  0  0  0  0  0  0  0  0  0  0
  -17.1913   10.0216   -7.5450 C   0  0  0  0  0  0  0  0  0  0  0  0
  -18.0851   10.3725   -8.7647 C   0  0  0  0  0  0  0  0  0  0  0  0
  -19.2660    9.4704   -8.9911 N   0  0  0  0  0  0  0  0  0  0  0  0
  -19.8770    9.1028   -7.6861 C   0  0  0  0  0  0  0  0  0  0  0  0
  -18.8529    8.3835   -6.7901 C   0  0  0  0  0  0  0  0  0  0  0  0
  -17.6761    9.2281   -6.5893 N   0  0  0  0  0  0  0  0  0  0  0  0
  -17.4564   10.3829   -9.6559 H   0  0  0  0  0  0  0  0  0  0  0  0
  -18.4523   11.3856   -8.6044 H   0  0  0  0  0  0  0  0  0  0  0  0
  -18.9529    8.6322   -9.4662 H   0  0  0  0  0  0  0  0  0  0  0  0
  -20.7328    8.4456   -7.8522 H   0  0  0  0  0  0  0  0  0  0  0  0
  -20.2291   10.0021   -7.1758 H   0  0  0  0  0  0  0  0  0  0  0  0
  -18.5567    7.4473   -7.2658 H   0  0  0  0  0  0  0  0  0  0  0  0
  -19.3161    8.1597   -5.8275 H   0  0  0  0  0  0  0  0  0  0  0  0
  -17.0726    9.0754   -5.7983 H   0  0  0  0  0  0  0  0  0  0  0  0
  1  2  2  0
  2  3  1  0
  2  7  1  0
  3  4  1  0
  3  8  1  0
  3  9  1  0
  4  5  1  0
  4 10  1  0
  5  6  1  0
  5 11  1  0
  5 12  1  0
  6  7  1  0
  6 13  1  0
  6 14  1  0
  7 15  1  0
M  END
> <intraLJ>
0.615     

> <intraEL>
3.232     

> <intraDihe>
15.833    

> <interLJ>
0.000     

> <interEJ>
0.000     

> <gridLJ>
-2.706    

> <gridEL>
0.000     

> <totalE>
16.974    

> <LGFE>
-2.706  

> <LE>
-0.387  

> <SMILES>
O=C1CNCCN1

> <atom.dprop.GFE>
-1.3 0 -0.089 -0.33 -0.12 -0.16 -0.65 0 0 0 0 0 0 0 0

> <atom.prop.CLASS>
GENA NCLA PRPC GEND PRPC PRPC GEND NCLA NCLA NCLA NCLA NCLA NCLA NCLA NCLA

$$$$
31_1
     RDKit          3D

 15 15  0  0  0  0  0  0  0  0999 V2000
  -39.7015   -1.4990   26.8078 O   0  0  0  0  0  0  0  0  0  0  0  0
  -39.6351   -2.3647   25.9463 C   0  0  0  0  0  0  0  0  0  0  0  0
  -38.3002   -3.0948   25.6391 C   0  0  0  0  0  0  0  0  0  0  0  0
  -38.4140   -4.3461   24.8140 N   0  0  0  0  0  0  0  0  0  0  0  0
  -39.4354   -4.1571   23.7498 C   0  0  0  0  0  0  0  0  0  0  0  0
  -40.8071   -3.8281   24.3655 C   0  0  0  0  0  0  0  0  0  0  0  0
  -40.7107   -2.6353   25.2061 N   0  0  0  0  0  0  0  0  0  0  0  0
  -37.8116   -3.3245   26.5868 H   0  0  0  0  0  0  0  0  0  0  0  0
  -37.6701   -2.3858   25.1029 H   0  0  0  0  0  0  0  0  0  0  0  0
  -38.6906   -5.1126   25.4160 H   0  0  0  0  0  0  0  0  0  0  0  0
  -39.5186   -5.0677   23.1533 H   0  0  0  0  0  0  0  0  0  0  0  0
  -39.1349   -3.3406   23.0893 H   0  0  0  0  0  0  0  0  0  0  0  0
  -41.1419   -4.6752   24.9663 H   0  0  0  0  0  0  0  0  0  0  0  0
  -41.5268   -3.6578   23.5629 H   0  0  0  0  0  0  0  0  0  0  0  0
  -41.5344   -2.0964   25.4162 H   0  0  0  0  0  0  0  0  0  0  0  0
  1  2  2  0
  2  3  1  0
  2  7  1  0
  3  4  1  0
  3  8  1  0
  3  9  1  0
  4  5  1  0
  4 10  1  0
  5  6  1  0
  5 11  1  0
  5 12  1  0
  6  7  1  0
  6 13  1  0
  6 14  1  0
  7 15  1  0
M  END
> <intraLJ>
0.615     

> <intraEL>
3.232     

> <intraDihe>
15.833    

> <interLJ>
0.000     

> <interEJ>
0.000     

> <gridLJ>
-2.632    

> <gridEL>
0.000     

> <totalE>
17.048    

> <LGFE>
-2.632  

> <LE>
-0.376  

> <SMILES>
O=C1CNCCN1

> <atom.dprop.GFE>
-0.71 0 -0.41 -0.64 -0.19 -0.29 -0.4 0 0 0 0 0 0 0 0

> <atom.prop.CLASS>
GENA NCLA PRPC GEND PRPC PRPC GEND NCLA NCLA NCLA NCLA NCLA NCLA NCLA NCLA

$$$$
31_1
     RDKit          3D

 15 15  0  0  0  0  0  0  0  0999 V2000
   19.6806   -5.9129  -19.6859 O   0  0  0  0  0  0  0  0  0  0  0  0
   18.9196   -5.0078  -19.9988 C   0  0  0  0  0  0  0  0  0  0  0  0
   18.5732   -3.8670  -19.0049 C   0  0  0  0  0  0  0  0  0  0  0  0
   17.9085   -2.6584  -19.6026 N   0  0  0  0  0  0  0  0  0  0  0  0
   16.9299   -3.0822  -20.6391 C   0  0  0  0  0  0  0  0  0  0  0  0
   17.6302   -3.8799  -21.7535 C   0  0  0  0  0  0  0  0  0  0  0  0
   18.3184   -5.0400  -21.1885 N   0  0  0  0  0  0  0  0  0  0  0  0
   19.4909   -3.5666  -18.4978 H   0  0  0  0  0  0  0  0  0  0  0  0
   17.9041   -4.2929  -18.2579 H   0  0  0  0  0  0  0  0  0  0  0  0
   18.6162   -2.0699  -20.0259 H   0  0  0  0  0  0  0  0  0  0  0  0
   16.4502   -2.2031  -21.0738 H   0  0  0  0  0  0  0  0  0  0  0  0
   16.1566   -3.7057  -20.1849 H   0  0  0  0  0  0  0  0  0  0  0  0
   18.3512   -3.2339  -22.2569 H   0  0  0  0  0  0  0  0  0  0  0  0
   16.8843   -4.2095  -22.4790 H   0  0  0  0  0  0  0  0  0  0  0  0
   18.5426   -5.8291  -21.7718 H   0  0  0  0  0  0  0  0  0  0  0  0
  1  2  2  0
  2  3  1  0
  2  7  1  0
  3  4  1  0
  3  8  1  0
  3  9  1  0
  4  5  1  0
  4 10  1  0
  5  6  1  0
  5 11  1  0
  5 12  1  0
  6  7  1  0
  6 13  1  0
  6 14  1  0
  7 15  1  0
M  END
> <intraLJ>
0.615     

> <intraEL>
3.232     

> <intraDihe>
15.833    

> <interLJ>
0.000     

> <interEJ>
0.000     

> <gridLJ>
-2.637    

> <gridEL>
0.000     

> <totalE>
17.043    

> <LGFE>
-2.637  

> <LE>
-0.377  

> <SMILES>
O=C1CNCCN1

> <atom.dprop.GFE>
-0.57 0 -0.27 -0.78 -0.19 -0.2 -0.62 0 0 0 0 0 0 0 0

> <atom.prop.CLASS>
GENA NCLA PRPC GEND PRPC PRPC GEND NCLA NCLA NCLA NCLA NCLA NCLA NCLA NCLA

$$$$
31_1
     RDKit          3D

 15 15  0  0  0  0  0  0  0  0999 V2000
   19.7705    2.2029  -47.6590 O   0  0  0  0  0  0  0  0  0  0  0  0
   19.6894    3.1206  -48.4635 C   0  0  0  0  0  0  0  0  0  0  0  0
   18.3121    3.6709  -48.9216 C   0  0  0  0  0  0  0  0  0  0  0  0
   18.3412    4.9918  -49.6384 N   0  0  0  0  0  0  0  0  0  0  0  0
   19.5180    5.0470  -50.5460 C   0  0  0  0  0  0  0  0  0  0  0  0
   20.8249    4.8708  -49.7525 C   0  0  0  0  0  0  0  0  0  0  0  0
   20.8014    3.6087  -49.0140 N   0  0  0  0  0  0  0  0  0  0  0  0
   17.6661    3.7439  -48.0458 H   0  0  0  0  0  0  0  0  0  0  0  0
   17.8826    2.9261  -49.5909 H   0  0  0  0  0  0  0  0  0  0  0  0
   18.4069    5.7358  -48.9538 H   0  0  0  0  0  0  0  0  0  0  0  0
   19.5390    6.0079  -51.0638 H   0  0  0  0  0  0  0  0  0  0  0  0
   19.4450    4.2553  -51.2951 H   0  0  0  0  0  0  0  0  0  0  0  0
   20.9350    5.7028  -49.0552 H   0  0  0  0  0  0  0  0  0  0  0  0
   21.6673    4.8776  -50.4464 H   0  0  0  0  0  0  0  0  0  0  0  0
   21.6624    3.1802  -48.7167 H   0  0  0  0  0  0  0  0  0  0  0  0
  1  2  2  0
  2  3  1  0
  2  7  1  0
  3  4  1  0
  3  8  1  0
  3  9  1  0
  4  5  1  0
  4 10  1  0
  5  6  1  0
  5 11  1  0
  5 12  1  0
  6  7  1  0
  6 13  1  0
  6 14  1  0
  7 15  1  0
M  END
> <intraLJ>
0.615     

> <intraEL>
3.232     

> <intraDihe>
15.833    

> <interLJ>
0.000     

> <interEJ>
0.000     

> <gridLJ>
-2.635    

> <gridEL>
0.000     

> <totalE>
17.045    

> <LGFE>
-2.635  

> <LE>
-0.376  

> <SMILES>
O=C1CNCCN1

> <atom.dprop.GFE>
-0.44 0 -0.41 -0.44 -0.39 -0.33 -0.62 0 0 0 0 0 0 0 0

> <atom.prop.CLASS>
GENA NCLA PRPC GEND PRPC PRPC GEND NCLA NCLA NCLA NCLA NCLA NCLA NCLA NCLA

$$$$
31_1
     RDKit          3D

 15 15  0  0  0  0  0  0  0  0999 V2000
  -38.3022   -4.8550   27.2867 O   0  0  0  0  0  0  0  0  0  0  0  0
  -38.8841   -4.2191   26.4189 C   0  0  0  0  0  0  0  0  0  0  0  0
  -39.0015   -4.7575   24.9677 C   0  0  0  0  0  0  0  0  0  0  0  0
  -40.0065   -4.0629   24.0918 N   0  0  0  0  0  0  0  0  0  0  0  0
  -39.9796   -2.5997   24.3563 C   0  0  0  0  0  0  0  0  0  0  0  0
  -40.3048   -2.3082   25.8321 C   0  0  0  0  0  0  0  0  0  0  0  0
  -39.3626   -3.0078   26.7048 N   0  0  0  0  0  0  0  0  0  0  0  0
  -39.2330   -5.8221   25.0171 H   0  0  0  0  0  0  0  0  0  0  0  0
  -38.0174   -4.6515   24.5124 H   0  0  0  0  0  0  0  0  0  0  0  0
  -40.9292   -4.4270   24.2978 H   0  0  0  0  0  0  0  0  0  0  0  0
  -40.7119   -2.0972   23.7213 H   0  0  0  0  0  0  0  0  0  0  0  0
  -38.9906   -2.1994   24.1223 H   0  0  0  0  0  0  0  0  0  0  0  0
  -41.3215   -2.6411   26.0469 H   0  0  0  0  0  0  0  0  0  0  0  0
  -40.2411   -1.2326   26.0059 H   0  0  0  0  0  0  0  0  0  0  0  0
  -39.2141   -2.6891   27.6480 H   0  0  0  0  0  0  0  0  0  0  0  0
  1  2  2  0
  2  3  1  0
  2  7  1  0
  3  4  1  0
  3  8  1  0
  3  9  1  0
  4  5  1  0
  4 10  1  0
  5  6  1  0
  5 11  1  0
  5 12  1  0
  6  7  1  0
  6 13  1  0
  6 14  1  0
  7 15  1  0
M  END
> <intraLJ>
0.615     

> <intraEL>
3.232     

> <intraDihe>
15.833    

> <interLJ>
0.000     

> <interEJ>
0.000     

> <gridLJ>
-2.590    

> <gridEL>
0.000     

> <totalE>
17.090    

> <LGFE>
-2.590  

> <LE>
-0.370  

> <SMILES>
O=C1CNCCN1

> <atom.dprop.GFE>
-0.33 0 -0.33 -0.72 -0.35 -0.38 -0.48 0 0 0 0 0 0 0 0

> <atom.prop.CLASS>
GENA NCLA PRPC GEND PRPC PRPC GEND NCLA NCLA NCLA NCLA NCLA NCLA NCLA NCLA

$$$$
31_1
     RDKit          3D

 15 15  0  0  0  0  0  0  0  0999 V2000
  -28.2715   14.5596   25.3780 O   0  0  0  0  0  0  0  0  0  0  0  0
  -29.0476   15.2788   25.9915 C   0  0  0  0  0  0  0  0  0  0  0  0
  -29.0914   15.2777   27.5432 C   0  0  0  0  0  0  0  0  0  0  0  0
  -29.8315   16.4222   28.1773 N   0  0  0  0  0  0  0  0  0  0  0  0
  -31.0515   16.7337   27.3860 C   0  0  0  0  0  0  0  0  0  0  0  0
  -30.6803   17.1079   25.9399 C   0  0  0  0  0  0  0  0  0  0  0  0
  -29.9234   16.0234   25.3158 N   0  0  0  0  0  0  0  0  0  0  0  0
  -28.0656   15.2556   27.9129 H   0  0  0  0  0  0  0  0  0  0  0  0
  -29.5737   14.3481   27.8435 H   0  0  0  0  0  0  0  0  0  0  0  0
  -29.2256   17.2338   28.1985 H   0  0  0  0  0  0  0  0  0  0  0  0
  -31.5863   17.5668   27.8464 H   0  0  0  0  0  0  0  0  0  0  0  0
  -31.7150   15.8661   27.3717 H   0  0  0  0  0  0  0  0  0  0  0  0
  -30.0787   18.0182   25.9492 H   0  0  0  0  0  0  0  0  0  0  0  0
  -31.5946   17.2943   25.3737 H   0  0  0  0  0  0  0  0  0  0  0  0
  -29.8824   15.9467   24.3130 H   0  0  0  0  0  0  0  0  0  0  0  0
  1  2  2  0
  2  3  1  0
  2  7  1  0
  3  4  1  0
  3  8  1  0
  3  9  1  0
  4  5  1  0
  4 10  1  0
  5  6  1  0
  5 11  1  0
  5 12  1  0
  6  7  1  0
  6 13  1  0
  6 14  1  0
  7 15  1  0
M  END
> <intraLJ>
0.615     

> <intraEL>
3.232     

> <intraDihe>
15.833    

> <interLJ>
0.000     

> <interEJ>
0.000     

> <gridLJ>
-2.583    

> <gridEL>
0.000     

> <totalE>
17.098    

> <LGFE>
-2.583  

> <LE>
-0.369  

> <SMILES>
O=C1CNCCN1

> <atom.dprop.GFE>
-1 0 -0.23 -0.46 -0.31 -0.21 -0.37 0 0 0 0 0 0 0 0

> <atom.prop.CLASS>
GENA NCLA PRPC GEND PRPC PRPC GEND NCLA NCLA NCLA NCLA NCLA NCLA NCLA NCLA

$$$$
31_1
     RDKit          3D

 15 15  0  0  0  0  0  0  0  0999 V2000
   17.3618   -4.4114   -7.8677 O   0  0  0  0  0  0  0  0  0  0  0  0
   18.3614   -4.0998   -7.2354 C   0  0  0  0  0  0  0  0  0  0  0  0
   19.7484   -3.9908   -7.9237 C   0  0  0  0  0  0  0  0  0  0  0  0
   20.8170   -3.2882   -7.1337 N   0  0  0  0  0  0  0  0  0  0  0  0
   20.7118   -3.6633   -5.6986 C   0  0  0  0  0  0  0  0  0  0  0  0
   19.3308   -3.2810   -5.1369 C   0  0  0  0  0  0  0  0  0  0  0  0
   18.2729   -3.9223   -5.9169 N   0  0  0  0  0  0  0  0  0  0  0  0
   19.6141   -3.4903   -8.8834 H   0  0  0  0  0  0  0  0  0  0  0  0
   20.0816   -5.0088   -8.1228 H   0  0  0  0  0  0  0  0  0  0  0  0
   20.6937   -2.2874   -7.2317 H   0  0  0  0  0  0  0  0  0  0  0  0
   21.4869   -3.1501   -5.1260 H   0  0  0  0  0  0  0  0  0  0  0  0
   20.8581   -4.7399   -5.5858 H   0  0  0  0  0  0  0  0  0  0  0  0
   19.2143   -2.1970   -5.1809 H   0  0  0  0  0  0  0  0  0  0  0  0
   19.2682   -3.6011   -4.0953 H   0  0  0  0  0  0  0  0  0  0  0  0
   17.3587   -4.0545   -5.5170 H   0  0  0  0  0  0  0  0  0  0  0  0
  1  2  2  0
  2  3  1  0
  2  7  1  0
  3  4  1  0
  3  8  1  0
  3  9  1  0
  4  5  1  0
  4 10  1  0
  5  6  1  0
  5 11  1  0
  5 12  1  0
  6  7  1  0
  6 13  1  0
  6 14  1  0
  7 15  1  0
M  END
> <intraLJ>
0.615     

> <intraEL>
3.232     

> <intraDihe>
15.833    

> <interLJ>
0.000     

> <interEJ>
0.000     

> <gridLJ>
-2.447    

> <gridEL>
0.000     

> <totalE>
17.233    

> <LGFE>
-2.447  

> <LE>
-0.350  

> <SMILES>
O=C1CNCCN1

> <atom.dprop.GFE>
-1.1 0 -0.17 -0.36 -0.14 -0.17 -0.53 0 0 0 0 0 0 0 0

> <atom.prop.CLASS>
GENA NCLA PRPC GEND PRPC PRPC GEND NCLA NCLA NCLA NCLA NCLA NCLA NCLA NCLA

$$$$
31_1
     RDKit          3D

 15 15  0  0  0  0  0  0  0  0999 V2000
   -4.5856    7.7952  -12.6297 O   0  0  0  0  0  0  0  0  0  0  0  0
   -4.6835    6.6603  -12.1841 C   0  0  0  0  0  0  0  0  0  0  0  0
   -6.0544    5.9349  -12.1221 C   0  0  0  0  0  0  0  0  0  0  0  0
   -5.9996    4.4533  -11.8738 N   0  0  0  0  0  0  0  0  0  0  0  0
   -4.9361    4.1477  -10.8802 C   0  0  0  0  0  0  0  0  0  0  0  0
   -3.5648    4.6289  -11.3868 C   0  0  0  0  0  0  0  0  0  0  0  0
   -3.6066    6.0623  -11.6737 N   0  0  0  0  0  0  0  0  0  0  0  0
   -6.5856    6.1302  -13.0544 H   0  0  0  0  0  0  0  0  0  0  0  0
   -6.6192    6.3981  -11.3137 H   0  0  0  0  0  0  0  0  0  0  0  0
   -5.7932    3.9813  -12.7462 H   0  0  0  0  0  0  0  0  0  0  0  0
   -4.8960    3.0712  -10.7031 H   0  0  0  0  0  0  0  0  0  0  0  0
   -5.1613    4.6431   -9.9330 H   0  0  0  0  0  0  0  0  0  0  0  0
   -3.3056    4.0799  -12.2935 H   0  0  0  0  0  0  0  0  0  0  0  0
   -2.8113    4.4263  -10.6236 H   0  0  0  0  0  0  0  0  0  0  0  0
   -2.7554    6.5991  -11.6954 H   0  0  0  0  0  0  0  0  0  0  0  0
  1  2  2  0
  2  3  1  0
  2  7  1  0
  3  4  1  0
  3  8  1  0
  3  9  1  0
  4  5  1  0
  4 10  1  0
  5  6  1  0
  5 11  1  0
  5 12  1  0
  6  7  1  0
  6 13  1  0
  6 14  1  0
  7 15  1  0
M  END
> <intraLJ>
0.615     

> <intraEL>
3.232     

> <intraDihe>
15.833    

> <interLJ>
0.000     

> <interEJ>
0.000     

> <gridLJ>
-2.473    

> <gridEL>
0.000     

> <totalE>
17.207    

> <LGFE>
-2.473  

> <LE>
-0.353  

> <SMILES>
O=C1CNCCN1

> <atom.dprop.GFE>
-0.41 0 -0.23 -1 -0.18 -0.2 -0.42 0 0 0 0 0 0 0 0

> <atom.prop.CLASS>
GENA NCLA PRPC GEND PRPC PRPC GEND NCLA NCLA NCLA NCLA NCLA NCLA NCLA NCLA

$$$$
31_1
     RDKit          3D

 15 15  0  0  0  0  0  0  0  0999 V2000
  -25.3006   -4.3491    3.7111 O   0  0  0  0  0  0  0  0  0  0  0  0
  -24.7735   -5.2911    3.1358 C   0  0  0  0  0  0  0  0  0  0  0  0
  -25.1226   -6.7578    3.5050 C   0  0  0  0  0  0  0  0  0  0  0  0
  -24.6741   -7.8038    2.5229 N   0  0  0  0  0  0  0  0  0  0  0  0
  -23.3277   -7.4561    1.9958 C   0  0  0  0  0  0  0  0  0  0  0  0
  -23.3546   -6.0838    1.2994 C   0  0  0  0  0  0  0  0  0  0  0  0
  -23.8273   -5.0560    2.2262 N   0  0  0  0  0  0  0  0  0  0  0  0
  -26.2021   -6.8261    3.6449 H   0  0  0  0  0  0  0  0  0  0  0  0
  -24.6488   -6.9619    4.4646 H   0  0  0  0  0  0  0  0  0  0  0  0
  -25.3373   -7.8421    1.7580 H   0  0  0  0  0  0  0  0  0  0  0  0
  -23.0048   -8.2153    1.2809 H   0  0  0  0  0  0  0  0  0  0  0  0
  -22.6057   -7.4271    2.8150 H   0  0  0  0  0  0  0  0  0  0  0  0
  -24.0196   -6.1339    0.4357 H   0  0  0  0  0  0  0  0  0  0  0  0
  -22.3480   -5.8379    0.9565 H   0  0  0  0  0  0  0  0  0  0  0  0
  -23.6067   -4.0875    2.0632 H   0  0  0  0  0  0  0  0  0  0  0  0
  1  2  2  0
  2  3  1  0
  2  7  1  0
  3  4  1  0
  3  8  1  0
  3  9  1  0
  4  5  1  0
  4 10  1  0
  5  6  1  0
  5 11  1  0
  5 12  1  0
  6  7  1  0
  6 13  1  0
  6 14  1  0
  7 15  1  0
M  END
> <intraLJ>
0.615     

> <intraEL>
3.232     

> <intraDihe>
15.833    

> <interLJ>
0.000     

> <interEJ>
0.000     

> <gridLJ>
-2.451    

> <gridEL>
0.000     

> <totalE>
17.229    

> <LGFE>
-2.451  

> <LE>
-0.350  

> <SMILES>
O=C1CNCCN1

> <atom.dprop.GFE>
-1.3 0 -0.34 -0.21 0.12 -0.005 -0.69 0 0 0 0 0 0 0 0

> <atom.prop.CLASS>
GENA NCLA PRPC GEND PRPC PRPC GEND NCLA NCLA NCLA NCLA NCLA NCLA NCLA NCLA

$$$$
31_1
     RDKit          3D

 15 15  0  0  0  0  0  0  0  0999 V2000
   12.5125   -2.3881  -39.8801 O   0  0  0  0  0  0  0  0  0  0  0  0
   12.5328   -3.3492  -39.1239 C   0  0  0  0  0  0  0  0  0  0  0  0
   11.2244   -3.9278  -38.5215 C   0  0  0  0  0  0  0  0  0  0  0  0
   11.3408   -5.2865  -37.8888 N   0  0  0  0  0  0  0  0  0  0  0  0
   12.6255   -5.3885  -37.1466 C   0  0  0  0  0  0  0  0  0  0  0  0
   13.8187   -5.1649  -38.0927 C   0  0  0  0  0  0  0  0  0  0  0  0
   13.7049   -3.8640  -38.7508 N   0  0  0  0  0  0  0  0  0  0  0  0
   10.4696   -3.9541  -39.3083 H   0  0  0  0  0  0  0  0  0  0  0  0
   10.8891   -3.2226  -37.7617 H   0  0  0  0  0  0  0  0  0  0  0  0
   11.3134   -5.9911  -38.6162 H   0  0  0  0  0  0  0  0  0  0  0  0
   12.7095   -6.3767  -36.6900 H   0  0  0  0  0  0  0  0  0  0  0  0
   12.6542   -4.6398  -36.3518 H   0  0  0  0  0  0  0  0  0  0  0  0
   13.8333   -5.9567  -38.8434 H   0  0  0  0  0  0  0  0  0  0  0  0
   14.7443   -5.2079  -37.5159 H   0  0  0  0  0  0  0  0  0  0  0  0
   14.5216   -3.4172  -39.1336 H   0  0  0  0  0  0  0  0  0  0  0  0
  1  2  2  0
  2  3  1  0
  2  7  1  0
  3  4  1  0
  3  8  1  0
  3  9  1  0
  4  5  1  0
  4 10  1  0
  5  6  1  0
  5 11  1  0
  5 12  1  0
  6  7  1  0
  6 13  1  0
  6 14  1  0
  7 15  1  0
M  END
> <intraLJ>
0.615     

> <intraEL>
3.232     

> <intraDihe>
15.833    

> <interLJ>
0.000     

> <interEJ>
0.000     

> <gridLJ>
-2.403    

> <gridEL>
0.000     

> <totalE>
17.277    

> <LGFE>
-2.403  

> <LE>
-0.343  

> <SMILES>
O=C1CNCCN1

> <atom.dprop.GFE>
-0.68 0 -0.32 -0.49 -0.24 -0.18 -0.5 0 0 0 0 0 0 0 0

> <atom.prop.CLASS>
GENA NCLA PRPC GEND PRPC PRPC GEND NCLA NCLA NCLA NCLA NCLA NCLA NCLA NCLA

$$$$
31_1
     RDKit          3D

 15 15  0  0  0  0  0  0  0  0999 V2000
  -17.7585   -2.0227   26.2397 O   0  0  0  0  0  0  0  0  0  0  0  0
  -18.5404   -1.2691   26.8026 C   0  0  0  0  0  0  0  0  0  0  0  0
  -19.7340   -1.8178   27.6294 C   0  0  0  0  0  0  0  0  0  0  0  0
  -20.4140   -0.8273   28.5328 N   0  0  0  0  0  0  0  0  0  0  0  0
  -20.5067    0.4928   27.8544 C   0  0  0  0  0  0  0  0  0  0  0  0
  -19.1059    1.0160   27.4900 C   0  0  0  0  0  0  0  0  0  0  0  0
  -18.4096    0.0482   26.6431 N   0  0  0  0  0  0  0  0  0  0  0  0
  -19.3803   -2.6660   28.2168 H   0  0  0  0  0  0  0  0  0  0  0  0
  -20.4670   -2.1904   26.9145 H   0  0  0  0  0  0  0  0  0  0  0  0
  -19.8725   -0.7330   29.3838 H   0  0  0  0  0  0  0  0  0  0  0  0
  -20.9984    1.2115   28.5129 H   0  0  0  0  0  0  0  0  0  0  0  0
  -21.1017    0.3996   26.9431 H   0  0  0  0  0  0  0  0  0  0  0  0
  -18.5359    1.1801   28.4059 H   0  0  0  0  0  0  0  0  0  0  0  0
  -19.2060    1.9655   26.9613 H   0  0  0  0  0  0  0  0  0  0  0  0
  -17.6477    0.3453   26.0562 H   0  0  0  0  0  0  0  0  0  0  0  0
  1  2  2  0
  2  3  1  0
  2  7  1  0
  3  4  1  0
  3  8  1  0
  3  9  1  0
  4  5  1  0
  4 10  1  0
  5  6  1  0
  5 11  1  0
  5 12  1  0
  6  7  1  0
  6 13  1  0
  6 14  1  0
  7 15  1  0
M  END
> <intraLJ>
0.615     

> <intraEL>
3.232     

> <intraDihe>
15.833    

> <interLJ>
0.000     

> <interEJ>
0.000     

> <gridLJ>
-2.409    

> <gridEL>
0.000     

> <totalE>
17.271    

> <LGFE>
-2.409  

> <LE>
-0.344  

> <SMILES>
O=C1CNCCN1

> <atom.dprop.GFE>
-0.76 0 -0.17 -0.59 -0.32 -0.25 -0.32 0 0 0 0 0 0 0 0

> <atom.prop.CLASS>
GENA NCLA PRPC GEND PRPC PRPC GEND NCLA NCLA NCLA NCLA NCLA NCLA NCLA NCLA

$$$$
31_1
     RDKit          3D

 15 15  0  0  0  0  0  0  0  0999 V2000
   -0.9866   11.2370    9.1322 O   0  0  0  0  0  0  0  0  0  0  0  0
   -0.3432   12.2590    8.9382 C   0  0  0  0  0  0  0  0  0  0  0  0
    0.6837   12.7747    9.9818 C   0  0  0  0  0  0  0  0  0  0  0  0
    1.6365   13.8306    9.4951 N   0  0  0  0  0  0  0  0  0  0  0  0
    0.9220   14.7816    8.6027 C   0  0  0  0  0  0  0  0  0  0  0  0
    0.3202   14.0442    7.3932 C   0  0  0  0  0  0  0  0  0  0  0  0
   -0.5804   12.9842    7.8447 N   0  0  0  0  0  0  0  0  0  0  0  0
    1.2463   11.9192   10.3575 H   0  0  0  0  0  0  0  0  0  0  0  0
    0.1095   13.1860   10.8113 H   0  0  0  0  0  0  0  0  0  0  0  0
    2.3874   13.3842    8.9820 H   0  0  0  0  0  0  0  0  0  0  0  0
    1.6161   15.5462    8.2481 H   0  0  0  0  0  0  0  0  0  0  0  0
    0.1199   15.2761    9.1551 H   0  0  0  0  0  0  0  0  0  0  0  0
    1.1276   13.6125    6.7995 H   0  0  0  0  0  0  0  0  0  0  0  0
   -0.2287   14.7583    6.7768 H   0  0  0  0  0  0  0  0  0  0  0  0
   -1.2918   12.6278    7.2281 H   0  0  0  0  0  0  0  0  0  0  0  0
  1  2  2  0
  2  3  1  0
  2  7  1  0
  3  4  1  0
  3  8  1  0
  3  9  1  0
  4  5  1  0
  4 10  1  0
  5  6  1  0
  5 11  1  0
  5 12  1  0
  6  7  1  0
  6 13  1  0
  6 14  1  0
  7 15  1  0
M  END
> <intraLJ>
0.615     

> <intraEL>
3.232     

> <intraDihe>
15.833    

> <interLJ>
0.000     

> <interEJ>
0.000     

> <gridLJ>
-2.395    

> <gridEL>
0.000     

> <totalE>
17.285    

> <LGFE>
-2.395  

> <LE>
-0.342  

> <SMILES>
O=C1CNCCN1

> <atom.dprop.GFE>
-0.52 0 -0.27 -0.31 -0.19 -0.32 -0.79 0 0 0 0 0 0 0 0

> <atom.prop.CLASS>
GENA NCLA PRPC GEND PRPC PRPC GEND NCLA NCLA NCLA NCLA NCLA NCLA NCLA NCLA

$$$$
31_1
     RDKit          3D

 15 15  0  0  0  0  0  0  0  0999 V2000
  -12.3250    0.2223   20.3319 O   0  0  0  0  0  0  0  0  0  0  0  0
  -13.2022    0.6689   21.0580 C   0  0  0  0  0  0  0  0  0  0  0  0
  -13.1457    2.1276   21.5859 C   0  0  0  0  0  0  0  0  0  0  0  0
  -14.4206    2.6577   22.1803 N   0  0  0  0  0  0  0  0  0  0  0  0
  -15.0888    1.5915   22.9728 C   0  0  0  0  0  0  0  0  0  0  0  0
  -15.4093    0.3752   22.0858 C   0  0  0  0  0  0  0  0  0  0  0  0
  -14.1870   -0.1330   21.4643 N   0  0  0  0  0  0  0  0  0  0  0  0
  -12.8271    2.7740   20.7673 H   0  0  0  0  0  0  0  0  0  0  0  0
  -12.3718    2.1549   22.3523 H   0  0  0  0  0  0  0  0  0  0  0  0
  -15.0332    2.9565   21.4307 H   0  0  0  0  0  0  0  0  0  0  0  0
  -16.0157    1.9775   23.4015 H   0  0  0  0  0  0  0  0  0  0  0  0
  -14.4379    1.2756   23.7911 H   0  0  0  0  0  0  0  0  0  0  0  0
  -16.1184    0.6737   21.3120 H   0  0  0  0  0  0  0  0  0  0  0  0
  -15.8637   -0.4043   22.6998 H   0  0  0  0  0  0  0  0  0  0  0  0
  -14.1456   -1.0818   21.1308 H   0  0  0  0  0  0  0  0  0  0  0  0
  1  2  2  0
  2  3  1  0
  2  7  1  0
  3  4  1  0
  3  8  1  0
  3  9  1  0
  4  5  1  0
  4 10  1  0
  5  6  1  0
  5 11  1  0
  5 12  1  0
  6  7  1  0
  6 13  1  0
  6 14  1  0
  7 15  1  0
M  END
> <intraLJ>
0.615     

> <intraEL>
3.232     

> <intraDihe>
15.833    

> <interLJ>
0.000     

> <interEJ>
0.000     

> <gridLJ>
-2.440    

> <gridEL>
0.000     

> <totalE>
17.240    

> <LGFE>
-2.440  

> <LE>
-0.349  

> <SMILES>
O=C1CNCCN1

> <atom.dprop.GFE>
-1 0 -0.06 -0.098 -0.31 -0.5 -0.43 0 0 0 0 0 0 0 0

> <atom.prop.CLASS>
GENA NCLA PRPC GEND PRPC PRPC GEND NCLA NCLA NCLA NCLA NCLA NCLA NCLA NCLA

$$$$
31_1
     RDKit          3D

 15 15  0  0  0  0  0  0  0  0999 V2000
   20.9426   12.9442   -0.4427 O   0  0  0  0  0  0  0  0  0  0  0  0
   20.7941   12.4023    0.6437 C   0  0  0  0  0  0  0  0  0  0  0  0
   19.9447   13.0615    1.7633 C   0  0  0  0  0  0  0  0  0  0  0  0
   19.5644   12.1656    2.9089 N   0  0  0  0  0  0  0  0  0  0  0  0
   20.7034   11.2723    3.2499 C   0  0  0  0  0  0  0  0  0  0  0  0
   21.0977   10.4083    2.0387 C   0  0  0  0  0  0  0  0  0  0  0  0
   21.4333   11.2601    0.8983 N   0  0  0  0  0  0  0  0  0  0  0  0
   19.0443   13.4760    1.3084 H   0  0  0  0  0  0  0  0  0  0  0  0
   20.5315   13.8912    2.1561 H   0  0  0  0  0  0  0  0  0  0  0  0
   18.7650   11.6058    2.6369 H   0  0  0  0  0  0  0  0  0  0  0  0
   20.4245   10.6206    4.0802 H   0  0  0  0  0  0  0  0  0  0  0  0
   21.5639   11.8707    3.5574 H   0  0  0  0  0  0  0  0  0  0  0  0
   20.2627    9.7562    1.7774 H   0  0  0  0  0  0  0  0  0  0  0  0
   21.9577    9.7915    2.3053 H   0  0  0  0  0  0  0  0  0  0  0  0
   22.0093   10.9046    0.1533 H   0  0  0  0  0  0  0  0  0  0  0  0
  1  2  2  0
  2  3  1  0
  2  7  1  0
  3  4  1  0
  3  8  1  0
  3  9  1  0
  4  5  1  0
  4 10  1  0
  5  6  1  0
  5 11  1  0
  5 12  1  0
  6  7  1  0
  6 13  1  0
  6 14  1  0
  7 15  1  0
M  END
> <intraLJ>
0.615     

> <intraEL>
3.232     

> <intraDihe>
15.833    

> <interLJ>
0.000     

> <interEJ>
0.000     

> <gridLJ>
-2.395    

> <gridEL>
0.000     

> <totalE>
17.285    

> <LGFE>
-2.395  

> <LE>
-0.342  

> <SMILES>
O=C1CNCCN1

> <atom.dprop.GFE>
-0.63 0 -0.28 -0.32 -0.28 -0.29 -0.59 0 0 0 0 0 0 0 0

> <atom.prop.CLASS>
GENA NCLA PRPC GEND PRPC PRPC GEND NCLA NCLA NCLA NCLA NCLA NCLA NCLA NCLA

$$$$
31_1
     RDKit          3D

 15 15  0  0  0  0  0  0  0  0999 V2000
  -23.5881   -2.9147   31.7188 O   0  0  0  0  0  0  0  0  0  0  0  0
  -24.5624   -3.6103   31.4681 C   0  0  0  0  0  0  0  0  0  0  0  0
  -25.9943   -3.0116   31.4417 C   0  0  0  0  0  0  0  0  0  0  0  0
  -27.0508   -3.8709   30.8051 N   0  0  0  0  0  0  0  0  0  0  0  0
  -26.8326   -5.2947   31.1746 C   0  0  0  0  0  0  0  0  0  0  0  0
  -25.4441   -5.7698   30.7108 C   0  0  0  0  0  0  0  0  0  0  0  0
  -24.4014   -4.9215   31.2869 N   0  0  0  0  0  0  0  0  0  0  0  0
  -25.9512   -2.0477   30.9332 H   0  0  0  0  0  0  0  0  0  0  0  0
  -26.2781   -2.8292   32.4777 H   0  0  0  0  0  0  0  0  0  0  0  0
  -26.9938   -3.7700   29.7986 H   0  0  0  0  0  0  0  0  0  0  0  0
  -27.5991   -5.9175   30.7092 H   0  0  0  0  0  0  0  0  0  0  0  0
  -26.9070   -5.4115   32.2581 H   0  0  0  0  0  0  0  0  0  0  0  0
  -25.3955   -5.7236   29.6217 H   0  0  0  0  0  0  0  0  0  0  0  0
  -25.2966   -6.8038   31.0276 H   0  0  0  0  0  0  0  0  0  0  0  0
  -23.4574   -5.2622   31.3646 H   0  0  0  0  0  0  0  0  0  0  0  0
  1  2  2  0
  2  3  1  0
  2  7  1  0
  3  4  1  0
  3  8  1  0
  3  9  1  0
  4  5  1  0
  4 10  1  0
  5  6  1  0
  5 11  1  0
  5 12  1  0
  6  7  1  0
  6 13  1  0
  6 14  1  0
  7 15  1  0
M  END
> <intraLJ>
0.615     

> <intraEL>
3.232     

> <intraDihe>
15.833    

> <interLJ>
0.000     

> <interEJ>
0.000     

> <gridLJ>
-2.385    

> <gridEL>
0.000     

> <totalE>
17.295    

> <LGFE>
-2.385  

> <LE>
-0.341  

> <SMILES>
O=C1CNCCN1

> <atom.dprop.GFE>
-0.63 0 -0.31 -0.45 -0.23 -0.27 -0.5 0 0 0 0 0 0 0 0

> <atom.prop.CLASS>
GENA NCLA PRPC GEND PRPC PRPC GEND NCLA NCLA NCLA NCLA NCLA NCLA NCLA NCLA

$$$$
31_1
     RDKit          3D

 15 15  0  0  0  0  0  0  0  0999 V2000
  -25.5360  -17.8534   22.5195 O   0  0  0  0  0  0  0  0  0  0  0  0
  -25.0918  -16.7343   22.3040 C   0  0  0  0  0  0  0  0  0  0  0  0
  -23.5853  -16.4144   22.4981 C   0  0  0  0  0  0  0  0  0  0  0  0
  -23.1074  -15.1242   21.8927 N   0  0  0  0  0  0  0  0  0  0  0  0
  -24.1360  -14.0670   22.0822 C   0  0  0  0  0  0  0  0  0  0  0  0
  -25.4644  -14.4767   21.4216 C   0  0  0  0  0  0  0  0  0  0  0  0
  -25.9280  -15.7517   21.9676 N   0  0  0  0  0  0  0  0  0  0  0  0
  -23.0058  -17.2452   22.0936 H   0  0  0  0  0  0  0  0  0  0  0  0
  -23.4077  -16.3764   23.5724 H   0  0  0  0  0  0  0  0  0  0  0  0
  -22.9462  -15.2657   20.9025 H   0  0  0  0  0  0  0  0  0  0  0  0
  -23.7884  -13.1315   21.6396 H   0  0  0  0  0  0  0  0  0  0  0  0
  -24.3035  -13.9006   23.1487 H   0  0  0  0  0  0  0  0  0  0  0  0
  -25.3145  -14.5706   20.3449 H   0  0  0  0  0  0  0  0  0  0  0  0
  -26.2097  -13.7016   21.6083 H   0  0  0  0  0  0  0  0  0  0  0  0
  -26.9001  -16.0055   21.9049 H   0  0  0  0  0  0  0  0  0  0  0  0
  1  2  2  0
  2  3  1  0
  2  7  1  0
  3  4  1  0
  3  8  1  0
  3  9  1  0
  4  5  1  0
  4 10  1  0
  5  6  1  0
  5 11  1  0
  5 12  1  0
  6  7  1  0
  6 13  1  0
  6 14  1  0
  7 15  1  0
M  END
> <intraLJ>
0.615     

> <intraEL>
3.232     

> <intraDihe>
15.833    

> <interLJ>
0.000     

> <interEJ>
0.000     

> <gridLJ>
-2.386    

> <gridEL>
0.000     

> <totalE>
17.295    

> <LGFE>
-2.386  

> <LE>
-0.341  

> <SMILES>
O=C1CNCCN1

> <atom.dprop.GFE>
-0.28 0 -0.23 -0.72 -0.31 -0.29 -0.55 0 0 0 0 0 0 0 0

> <atom.prop.CLASS>
GENA NCLA PRPC GEND PRPC PRPC GEND NCLA NCLA NCLA NCLA NCLA NCLA NCLA NCLA

$$$$
31_1
     RDKit          3D

 15 15  0  0  0  0  0  0  0  0999 V2000
   23.5614   13.0023   -2.4113 O   0  0  0  0  0  0  0  0  0  0  0  0
   23.1346   12.3838   -1.4462 C   0  0  0  0  0  0  0  0  0  0  0  0
   22.1789   13.0504   -0.4207 C   0  0  0  0  0  0  0  0  0  0  0  0
   21.4685   12.1137    0.5161 N   0  0  0  0  0  0  0  0  0  0  0  0
   22.3914   11.0264    0.9376 C   0  0  0  0  0  0  0  0  0  0  0  0
   22.8954   10.2375   -0.2841 C   0  0  0  0  0  0  0  0  0  0  0  0
   23.5555   11.1373   -1.2293 N   0  0  0  0  0  0  0  0  0  0  0  0
   21.4467   13.6417   -0.9718 H   0  0  0  0  0  0  0  0  0  0  0  0
   22.7828   13.7366    0.1721 H   0  0  0  0  0  0  0  0  0  0  0  0
   20.6702   11.7134    0.0377 H   0  0  0  0  0  0  0  0  0  0  0  0
   21.8730   10.3456    1.6157 H   0  0  0  0  0  0  0  0  0  0  0  0
   23.2473   11.4517    1.4665 H   0  0  0  0  0  0  0  0  0  0  0  0
   22.0483    9.7509   -0.7701 H   0  0  0  0  0  0  0  0  0  0  0  0
   23.5981    9.4723    0.0504 H   0  0  0  0  0  0  0  0  0  0  0  0
   24.2129   10.7737   -1.8992 H   0  0  0  0  0  0  0  0  0  0  0  0
  1  2  2  0
  2  3  1  0
  2  7  1  0
  3  4  1  0
  3  8  1  0
  3  9  1  0
  4  5  1  0
  4 10  1  0
  5  6  1  0
  5 11  1  0
  5 12  1  0
  6  7  1  0
  6 13  1  0
  6 14  1  0
  7 15  1  0
M  END
> <intraLJ>
0.615     

> <intraEL>
3.232     

> <intraDihe>
15.833    

> <interLJ>
0.000     

> <interEJ>
0.000     

> <gridLJ>
-2.382    

> <gridEL>
0.000     

> <totalE>
17.298    

> <LGFE>
-2.382  

> <LE>
-0.340  

> <SMILES>
O=C1CNCCN1

> <atom.dprop.GFE>
-0.72 0 -0.16 -0.59 -0.24 -0.21 -0.46 0 0 0 0 0 0 0 0

> <atom.prop.CLASS>
GENA NCLA PRPC GEND PRPC PRPC GEND NCLA NCLA NCLA NCLA NCLA NCLA NCLA NCLA

$$$$
31_1
     RDKit          3D

 15 15  0  0  0  0  0  0  0  0999 V2000
  -10.2591   10.0530    3.1990 O   0  0  0  0  0  0  0  0  0  0  0  0
  -10.3936   11.2678    3.1529 C   0  0  0  0  0  0  0  0  0  0  0  0
   -9.1991   12.1980    2.8102 C   0  0  0  0  0  0  0  0  0  0  0  0
   -9.5541   13.6161    2.4598 N   0  0  0  0  0  0  0  0  0  0  0  0
  -10.6558   14.0916    3.3382 C   0  0  0  0  0  0  0  0  0  0  0  0
  -11.9013   13.2018    3.1777 C   0  0  0  0  0  0  0  0  0  0  0  0
  -11.5689   11.8090    3.4750 N   0  0  0  0  0  0  0  0  0  0  0  0
   -8.6408   11.7470    1.9889 H   0  0  0  0  0  0  0  0  0  0  0  0
   -8.5505   12.2124    3.6854 H   0  0  0  0  0  0  0  0  0  0  0  0
   -9.8538   13.6504    1.4926 H   0  0  0  0  0  0  0  0  0  0  0  0
  -10.9141   15.1207    3.0806 H   0  0  0  0  0  0  0  0  0  0  0  0
  -10.3329   14.0699    4.3815 H   0  0  0  0  0  0  0  0  0  0  0  0
  -12.2684   13.2816    2.1533 H   0  0  0  0  0  0  0  0  0  0  0  0
  -12.6789   13.5501    3.8598 H   0  0  0  0  0  0  0  0  0  0  0  0
  -12.2930   11.1608    3.7371 H   0  0  0  0  0  0  0  0  0  0  0  0
  1  2  2  0
  2  3  1  0
  2  7  1  0
  3  4  1  0
  3  8  1  0
  3  9  1  0
  4  5  1  0
  4 10  1  0
  5  6  1  0
  5 11  1  0
  5 12  1  0
  6  7  1  0
  6 13  1  0
  6 14  1  0
  7 15  1  0
M  END
> <intraLJ>
0.615     

> <intraEL>
3.232     

> <intraDihe>
15.833    

> <interLJ>
0.000     

> <interEJ>
0.000     

> <gridLJ>
-2.367    

> <gridEL>
0.000     

> <totalE>
17.313    

> <LGFE>
-2.367  

> <LE>
-0.338  

> <SMILES>
O=C1CNCCN1

> <atom.dprop.GFE>
-0.79 0 -0.19 -0.62 -0.3 -0.23 -0.24 0 0 0 0 0 0 0 0

> <atom.prop.CLASS>
GENA NCLA PRPC GEND PRPC PRPC GEND NCLA NCLA NCLA NCLA NCLA NCLA NCLA NCLA

$$$$
31_1
     RDKit          3D

 15 15  0  0  0  0  0  0  0  0999 V2000
   10.0602    9.0737  -40.7026 O   0  0  0  0  0  0  0  0  0  0  0  0
   10.3131   10.2702  -40.7271 C   0  0  0  0  0  0  0  0  0  0  0  0
    9.4242   11.2969  -39.9753 C   0  0  0  0  0  0  0  0  0  0  0  0
   10.0130   12.6693  -39.8031 N   0  0  0  0  0  0  0  0  0  0  0  0
   10.7451   13.0621  -41.0365 C   0  0  0  0  0  0  0  0  0  0  0  0
   11.8729   12.0601  -41.3413 C   0  0  0  0  0  0  0  0  0  0  0  0
   11.3271   10.7098  -41.4731 N   0  0  0  0  0  0  0  0  0  0  0  0
    9.1745   10.8807  -38.9987 H   0  0  0  0  0  0  0  0  0  0  0  0
    8.4996   11.3887  -40.5444 H   0  0  0  0  0  0  0  0  0  0  0  0
   10.6543   12.6557  -39.0189 H   0  0  0  0  0  0  0  0  0  0  0  0
   11.1742   14.0578  -40.9087 H   0  0  0  0  0  0  0  0  0  0  0  0
   10.0550   13.0920  -41.8828 H   0  0  0  0  0  0  0  0  0  0  0  0
   12.6020   12.0845  -40.5299 H   0  0  0  0  0  0  0  0  0  0  0  0
   12.3676   12.3513  -42.2696 H   0  0  0  0  0  0  0  0  0  0  0  0
   11.8379   10.0046  -41.9780 H   0  0  0  0  0  0  0  0  0  0  0  0
  1  2  2  0
  2  3  1  0
  2  7  1  0
  3  4  1  0
  3  8  1  0
  3  9  1  0
  4  5  1  0
  4 10  1  0
  5  6  1  0
  5 11  1  0
  5 12  1  0
  6  7  1  0
  6 13  1  0
  6 14  1  0
  7 15  1  0
M  END
> <intraLJ>
0.615     

> <intraEL>
3.232     

> <intraDihe>
15.833    

> <interLJ>
0.000     

> <interEJ>
0.000     

> <gridLJ>
-2.319    

> <gridEL>
0.000     

> <totalE>
17.361    

> <LGFE>
-2.319  

> <LE>
-0.331  

> <SMILES>
O=C1CNCCN1

> <atom.dprop.GFE>
-1.2 0 -0.13 -0.52 -0.22 -0.1 -0.18 0 0 0 0 0 0 0 0

> <atom.prop.CLASS>
GENA NCLA PRPC GEND PRPC PRPC GEND NCLA NCLA NCLA NCLA NCLA NCLA NCLA NCLA

$$$$
31_1
     RDKit          3D

 15 15  0  0  0  0  0  0  0  0999 V2000
   10.2888   15.6600   -7.7642 O   0  0  0  0  0  0  0  0  0  0  0  0
    9.8591   15.9807   -8.8635 C   0  0  0  0  0  0  0  0  0  0  0  0
   10.7852   16.6113   -9.9378 C   0  0  0  0  0  0  0  0  0  0  0  0
   10.2328   16.6517  -11.3352 N   0  0  0  0  0  0  0  0  0  0  0  0
    8.7840   16.9849  -11.2952 C   0  0  0  0  0  0  0  0  0  0  0  0
    8.0088   15.9403  -10.4725 C   0  0  0  0  0  0  0  0  0  0  0  0
    8.5564   15.8552   -9.1192 N   0  0  0  0  0  0  0  0  0  0  0  0
   11.7309   16.0680   -9.9337 H   0  0  0  0  0  0  0  0  0  0  0  0
   10.9869   17.6333   -9.6184 H   0  0  0  0  0  0  0  0  0  0  0  0
   10.3592   15.7429  -11.7649 H   0  0  0  0  0  0  0  0  0  0  0  0
    8.3840   17.0111  -12.3107 H   0  0  0  0  0  0  0  0  0  0  0  0
    8.6433   17.9703  -10.8454 H   0  0  0  0  0  0  0  0  0  0  0  0
    8.0876   14.9687  -10.9628 H   0  0  0  0  0  0  0  0  0  0  0  0
    6.9573   16.2296  -10.4285 H   0  0  0  0  0  0  0  0  0  0  0  0
    7.9958   15.4871   -8.3687 H   0  0  0  0  0  0  0  0  0  0  0  0
  1  2  2  0
  2  3  1  0
  2  7  1  0
  3  4  1  0
  3  8  1  0
  3  9  1  0
  4  5  1  0
  4 10  1  0
  5  6  1  0
  5 11  1  0
  5 12  1  0
  6  7  1  0
  6 13  1  0
  6 14  1  0
  7 15  1  0
M  END
> <intraLJ>
0.615     

> <intraEL>
3.232     

> <intraDihe>
15.833    

> <interLJ>
0.000     

> <interEJ>
0.000     

> <gridLJ>
-2.353    

> <gridEL>
0.000     

> <totalE>
17.327    

> <LGFE>
-2.353  

> <LE>
-0.336  

> <SMILES>
O=C1CNCCN1

> <atom.dprop.GFE>
-0.42 0 -0.25 -0.87 -0.21 -0.27 -0.33 0 0 0 0 0 0 0 0

> <atom.prop.CLASS>
GENA NCLA PRPC GEND PRPC PRPC GEND NCLA NCLA NCLA NCLA NCLA NCLA NCLA NCLA

$$$$
31_1
     RDKit          3D

 15 15  0  0  0  0  0  0  0  0999 V2000
   23.9747   16.0393   -7.1032 O   0  0  0  0  0  0  0  0  0  0  0  0
   24.3435   15.5050   -8.1399 C   0  0  0  0  0  0  0  0  0  0  0  0
   25.3226   14.3006   -8.1212 C   0  0  0  0  0  0  0  0  0  0  0  0
   25.4369   13.5308   -9.4072 N   0  0  0  0  0  0  0  0  0  0  0  0
   25.4140   14.4695  -10.5604 C   0  0  0  0  0  0  0  0  0  0  0  0
   24.1089   15.2853  -10.5710 C   0  0  0  0  0  0  0  0  0  0  0  0
   23.9569   16.0118   -9.3110 N   0  0  0  0  0  0  0  0  0  0  0  0
   25.0198   13.6280   -7.3178 H   0  0  0  0  0  0  0  0  0  0  0  0
   26.3054   14.6981   -7.8701 H   0  0  0  0  0  0  0  0  0  0  0  0
   24.6553   12.8899   -9.4771 H   0  0  0  0  0  0  0  0  0  0  0  0
   25.4944   13.9086  -11.4935 H   0  0  0  0  0  0  0  0  0  0  0  0
   26.2629   15.1540  -10.4973 H   0  0  0  0  0  0  0  0  0  0  0  0
   23.2647   14.6078  -10.7090 H   0  0  0  0  0  0  0  0  0  0  0  0
   24.1357   15.9905  -11.4036 H   0  0  0  0  0  0  0  0  0  0  0  0
   23.3627   16.8229   -9.2630 H   0  0  0  0  0  0  0  0  0  0  0  0
  1  2  2  0
  2  3  1  0
  2  7  1  0
  3  4  1  0
  3  8  1  0
  3  9  1  0
  4  5  1  0
  4 10  1  0
  5  6  1  0
  5 11  1  0
  5 12  1  0
  6  7  1  0
  6 13  1  0
  6 14  1  0
  7 15  1  0
M  END
> <intraLJ>
0.615     

> <intraEL>
3.232     

> <intraDihe>
15.833    

> <interLJ>
0.000     

> <interEJ>
0.000     

> <gridLJ>
-2.330    

> <gridEL>
0.000     

> <totalE>
17.350    

> <LGFE>
-2.330  

> <LE>
-0.333  

> <SMILES>
O=C1CNCCN1

> <atom.dprop.GFE>
-0.76 0 -0.24 -0.56 -0.2 -0.13 -0.45 0 0 0 0 0 0 0 0

> <atom.prop.CLASS>
GENA NCLA PRPC GEND PRPC PRPC GEND NCLA NCLA NCLA NCLA NCLA NCLA NCLA NCLA

$$$$
31_1
     RDKit          3D

 15 15  0  0  0  0  0  0  0  0999 V2000
  -35.3119    4.9663   31.3806 O   0  0  0  0  0  0  0  0  0  0  0  0
  -36.4916    4.6485   31.3215 C   0  0  0  0  0  0  0  0  0  0  0  0
  -37.3682    5.0301   30.0987 C   0  0  0  0  0  0  0  0  0  0  0  0
  -38.6833    4.3105   29.9869 N   0  0  0  0  0  0  0  0  0  0  0  0
  -39.2910    4.1584   31.3357 C   0  0  0  0  0  0  0  0  0  0  0  0
  -38.3560    3.3659   32.2666 C   0  0  0  0  0  0  0  0  0  0  0  0
  -37.0549    4.0274   32.3582 N   0  0  0  0  0  0  0  0  0  0  0  0
  -36.7821    4.8637   29.1941 H   0  0  0  0  0  0  0  0  0  0  0  0
  -37.5666    6.0986   30.1751 H   0  0  0  0  0  0  0  0  0  0  0  0
  -38.5239    3.3954   29.5825 H   0  0  0  0  0  0  0  0  0  0  0  0
  -40.2446    3.6334   31.2528 H   0  0  0  0  0  0  0  0  0  0  0  0
  -39.4780    5.1428   31.7704 H   0  0  0  0  0  0  0  0  0  0  0  0
  -38.2284    2.3570   31.8710 H   0  0  0  0  0  0  0  0  0  0  0  0
  -38.8091    3.3023   33.2574 H   0  0  0  0  0  0  0  0  0  0  0  0
  -36.4511    3.8497   33.1438 H   0  0  0  0  0  0  0  0  0  0  0  0
  1  2  2  0
  2  3  1  0
  2  7  1  0
  3  4  1  0
  3  8  1  0
  3  9  1  0
  4  5  1  0
  4 10  1  0
  5  6  1  0
  5 11  1  0
  5 12  1  0
  6  7  1  0
  6 13  1  0
  6 14  1  0
  7 15  1  0
M  END
> <intraLJ>
0.615     

> <intraEL>
3.232     

> <intraDihe>
15.833    

> <interLJ>
0.000     

> <interEJ>
0.000     

> <gridLJ>
-2.286    

> <gridEL>
0.000     

> <totalE>
17.394    

> <LGFE>
-2.286  

> <LE>
-0.327  

> <SMILES>
O=C1CNCCN1

> <atom.dprop.GFE>
-0.79 0 -0.072 -0.48 -0.35 -0.14 -0.46 0 0 0 0 0 0 0 0

> <atom.prop.CLASS>
GENA NCLA PRPC GEND PRPC PRPC GEND NCLA NCLA NCLA NCLA NCLA NCLA NCLA NCLA

$$$$
31_1
     RDKit          3D

 15 15  0  0  0  0  0  0  0  0999 V2000
   14.4039   -3.2525    5.0300 O   0  0  0  0  0  0  0  0  0  0  0  0
   13.3938   -3.7989    5.4509 C   0  0  0  0  0  0  0  0  0  0  0  0
   12.8778   -5.1254    4.8316 C   0  0  0  0  0  0  0  0  0  0  0  0
   11.8421   -5.8624    5.6341 N   0  0  0  0  0  0  0  0  0  0  0  0
   10.8938   -4.8932    6.2447 C   0  0  0  0  0  0  0  0  0  0  0  0
   11.6398   -3.9073    7.1615 C   0  0  0  0  0  0  0  0  0  0  0  0
   12.6808   -3.2072    6.4099 N   0  0  0  0  0  0  0  0  0  0  0  0
   13.7356   -5.7757    4.6560 H   0  0  0  0  0  0  0  0  0  0  0  0
   12.4470   -4.8737    3.8631 H   0  0  0  0  0  0  0  0  0  0  0  0
   12.3060   -6.3883    6.3653 H   0  0  0  0  0  0  0  0  0  0  0  0
   10.1441   -5.4300    6.8291 H   0  0  0  0  0  0  0  0  0  0  0  0
   10.3806   -4.3331    5.4598 H   0  0  0  0  0  0  0  0  0  0  0  0
   12.0909   -4.4587    7.9879 H   0  0  0  0  0  0  0  0  0  0  0  0
   10.9268   -3.1863    7.5652 H   0  0  0  0  0  0  0  0  0  0  0  0
   13.0358   -2.3247    6.7390 H   0  0  0  0  0  0  0  0  0  0  0  0
  1  2  2  0
  2  3  1  0
  2  7  1  0
  3  4  1  0
  3  8  1  0
  3  9  1  0
  4  5  1  0
  4 10  1  0
  5  6  1  0
  5 11  1  0
  5 12  1  0
  6  7  1  0
  6 13  1  0
  6 14  1  0
  7 15  1  0
M  END
> <intraLJ>
0.615     

> <intraEL>
3.232     

> <intraDihe>
15.833    

> <interLJ>
0.000     

> <interEJ>
0.000     

> <gridLJ>
-2.291    

> <gridEL>
0.000     

> <totalE>
17.389    

> <LGFE>
-2.291  

> <LE>
-0.327  

> <SMILES>
O=C1CNCCN1

> <atom.dprop.GFE>
-0.43 0 -0.21 -0.59 -0.3 -0.3 -0.46 0 0 0 0 0 0 0 0

> <atom.prop.CLASS>
GENA NCLA PRPC GEND PRPC PRPC GEND NCLA NCLA NCLA NCLA NCLA NCLA NCLA NCLA

$$$$
31_1
     RDKit          3D

 15 15  0  0  0  0  0  0  0  0999 V2000
    8.8945   17.0267    0.4304 O   0  0  0  0  0  0  0  0  0  0  0  0
    9.6842   16.8433   -0.4855 C   0  0  0  0  0  0  0  0  0  0  0  0
   10.4783   18.0206   -1.1122 C   0  0  0  0  0  0  0  0  0  0  0  0
   11.6415   17.6348   -1.9827 N   0  0  0  0  0  0  0  0  0  0  0  0
   11.2877   16.4421   -2.7974 C   0  0  0  0  0  0  0  0  0  0  0  0
   10.9165   15.2553   -1.8904 C   0  0  0  0  0  0  0  0  0  0  0  0
    9.8116   15.6220   -1.0053 N   0  0  0  0  0  0  0  0  0  0  0  0
   10.8242   18.6665   -0.3044 H   0  0  0  0  0  0  0  0  0  0  0  0
    9.7721   18.5906   -1.7151 H   0  0  0  0  0  0  0  0  0  0  0  0
   12.4358   17.4179   -1.3926 H   0  0  0  0  0  0  0  0  0  0  0  0
   12.1344   16.1617   -3.4270 H   0  0  0  0  0  0  0  0  0  0  0  0
   10.4402   16.6750   -3.4460 H   0  0  0  0  0  0  0  0  0  0  0  0
   11.7867   14.9742   -1.2951 H   0  0  0  0  0  0  0  0  0  0  0  0
   10.6257   14.4075   -2.5132 H   0  0  0  0  0  0  0  0  0  0  0  0
    9.2355   14.9074   -0.5922 H   0  0  0  0  0  0  0  0  0  0  0  0
  1  2  2  0
  2  3  1  0
  2  7  1  0
  3  4  1  0
  3  8  1  0
  3  9  1  0
  4  5  1  0
  4 10  1  0
  5  6  1  0
  5 11  1  0
  5 12  1  0
  6  7  1  0
  6 13  1  0
  6 14  1  0
  7 15  1  0
M  END
> <intraLJ>
0.615     

> <intraEL>
3.232     

> <intraDihe>
15.833    

> <interLJ>
0.000     

> <interEJ>
0.000     

> <gridLJ>
-2.294    

> <gridEL>
0.000     

> <totalE>
17.386    

> <LGFE>
-2.294  

> <LE>
-0.328  

> <SMILES>
O=C1CNCCN1

> <atom.dprop.GFE>
-0.6 0 -0.22 -0.37 -0.35 -0.29 -0.46 0 0 0 0 0 0 0 0

> <atom.prop.CLASS>
GENA NCLA PRPC GEND PRPC PRPC GEND NCLA NCLA NCLA NCLA NCLA NCLA NCLA NCLA

$$$$
31_1
     RDKit          3D

 15 15  0  0  0  0  0  0  0  0999 V2000
  -19.2950   -8.8485   27.0128 O   0  0  0  0  0  0  0  0  0  0  0  0
  -20.4746   -9.0025   27.2971 C   0  0  0  0  0  0  0  0  0  0  0  0
  -21.1106  -10.4171   27.3577 C   0  0  0  0  0  0  0  0  0  0  0  0
  -22.4515  -10.5030   28.0317 N   0  0  0  0  0  0  0  0  0  0  0  0
  -23.2743   -9.3183   27.6698 C   0  0  0  0  0  0  0  0  0  0  0  0
  -22.5724   -8.0176   28.0992 C   0  0  0  0  0  0  0  0  0  0  0  0
  -21.2474   -7.9324   27.4862 N   0  0  0  0  0  0  0  0  0  0  0  0
  -20.4073  -11.0857   27.8557 H   0  0  0  0  0  0  0  0  0  0  0  0
  -21.2210  -10.7567   26.3284 H   0  0  0  0  0  0  0  0  0  0  0  0
  -22.3141  -10.5256   29.0352 H   0  0  0  0  0  0  0  0  0  0  0  0
  -24.2467   -9.3810   28.1622 H   0  0  0  0  0  0  0  0  0  0  0  0
  -23.4374   -9.2968   26.5899 H   0  0  0  0  0  0  0  0  0  0  0  0
  -22.4762   -8.0050   29.1860 H   0  0  0  0  0  0  0  0  0  0  0  0
  -23.1792   -7.1653   27.7883 H   0  0  0  0  0  0  0  0  0  0  0  0
  -20.7928   -7.0400   27.3855 H   0  0  0  0  0  0  0  0  0  0  0  0
  1  2  2  0
  2  3  1  0
  2  7  1  0
  3  4  1  0
  3  8  1  0
  3  9  1  0
  4  5  1  0
  4 10  1  0
  5  6  1  0
  5 11  1  0
  5 12  1  0
  6  7  1  0
  6 13  1  0
  6 14  1  0
  7 15  1  0
M  END
> <intraLJ>
0.615     

> <intraEL>
3.232     

> <intraDihe>
15.833    

> <interLJ>
0.000     

> <interEJ>
0.000     

> <gridLJ>
-2.251    

> <gridEL>
0.000     

> <totalE>
17.429    

> <LGFE>
-2.251  

> <LE>
-0.322  

> <SMILES>
O=C1CNCCN1

> <atom.dprop.GFE>
-0.61 0 -0.29 -0.2 -0.34 -0.43 -0.39 0 0 0 0 0 0 0 0

> <atom.prop.CLASS>
GENA NCLA PRPC GEND PRPC PRPC GEND NCLA NCLA NCLA NCLA NCLA NCLA NCLA NCLA

$$$$
31_1
     RDKit          3D

 15 15  0  0  0  0  0  0  0  0999 V2000
    8.6997   16.9090    1.1894 O   0  0  0  0  0  0  0  0  0  0  0  0
    7.7141   16.4423    0.6353 C   0  0  0  0  0  0  0  0  0  0  0  0
    7.8194   15.1891   -0.2745 C   0  0  0  0  0  0  0  0  0  0  0  0
    6.5179   14.5222   -0.6223 N   0  0  0  0  0  0  0  0  0  0  0  0
    5.4744   15.5522   -0.8708 C   0  0  0  0  0  0  0  0  0  0  0  0
    5.2758   16.4357    0.3738 C   0  0  0  0  0  0  0  0  0  0  0  0
    6.5404   17.0637    0.7546 N   0  0  0  0  0  0  0  0  0  0  0  0
    8.4806   14.4703    0.2109 H   0  0  0  0  0  0  0  0  0  0  0  0
    8.2984   15.5107   -1.1988 H   0  0  0  0  0  0  0  0  0  0  0  0
    6.2339   13.9326    0.1510 H   0  0  0  0  0  0  0  0  0  0  0  0
    4.5292   15.0662   -1.1205 H   0  0  0  0  0  0  0  0  0  0  0  0
    5.7692   16.1821   -1.7130 H   0  0  0  0  0  0  0  0  0  0  0  0
    4.9095   15.8187    1.1958 H   0  0  0  0  0  0  0  0  0  0  0  0
    4.5336   17.2043    0.1510 H   0  0  0  0  0  0  0  0  0  0  0  0
    6.5417   17.8991    1.3161 H   0  0  0  0  0  0  0  0  0  0  0  0
  1  2  2  0
  2  3  1  0
  2  7  1  0
  3  4  1  0
  3  8  1  0
  3  9  1  0
  4  5  1  0
  4 10  1  0
  5  6  1  0
  5 11  1  0
  5 12  1  0
  6  7  1  0
  6 13  1  0
  6 14  1  0
  7 15  1  0
M  END
> <intraLJ>
0.615     

> <intraEL>
3.232     

> <intraDihe>
15.833    

> <interLJ>
0.000     

> <interEJ>
0.000     

> <gridLJ>
-2.193    

> <gridEL>
0.000     

> <totalE>
17.487    

> <LGFE>
-2.193  

> <LE>
-0.313  

> <SMILES>
O=C1CNCCN1

> <atom.dprop.GFE>
-0.6 0 -0.13 -0.72 -0.2 -0.052 -0.49 0 0 0 0 0 0 0 0

> <atom.prop.CLASS>
GENA NCLA PRPC GEND PRPC PRPC GEND NCLA NCLA NCLA NCLA NCLA NCLA NCLA NCLA

$$$$
31_1
     RDKit          3D

 15 15  0  0  0  0  0  0  0  0999 V2000
  -14.5126    6.1092  -18.3718 O   0  0  0  0  0  0  0  0  0  0  0  0
  -13.6031    5.5054  -18.9235 C   0  0  0  0  0  0  0  0  0  0  0  0
  -12.1855    6.1249  -19.0505 C   0  0  0  0  0  0  0  0  0  0  0  0
  -11.0885    5.1735  -19.4393 N   0  0  0  0  0  0  0  0  0  0  0  0
  -11.5902    4.2159  -20.4606 C   0  0  0  0  0  0  0  0  0  0  0  0
  -12.7863    3.4161  -19.9142 C   0  0  0  0  0  0  0  0  0  0  0  0
  -13.8512    4.3249  -19.4917 N   0  0  0  0  0  0  0  0  0  0  0  0
  -11.9364    6.6028  -18.1024 H   0  0  0  0  0  0  0  0  0  0  0  0
  -12.2496    6.9040  -19.8094 H   0  0  0  0  0  0  0  0  0  0  0  0
  -10.7884    4.6642  -18.6166 H   0  0  0  0  0  0  0  0  0  0  0  0
  -10.7931    3.5242  -20.7398 H   0  0  0  0  0  0  0  0  0  0  0  0
  -11.9022    4.7591  -21.3555 H   0  0  0  0  0  0  0  0  0  0  0  0
  -12.4570    2.8155  -19.0648 H   0  0  0  0  0  0  0  0  0  0  0  0
  -13.1568    2.7500  -20.6954 H   0  0  0  0  0  0  0  0  0  0  0  0
  -14.7996    3.9952  -19.4213 H   0  0  0  0  0  0  0  0  0  0  0  0
  1  2  2  0
  2  3  1  0
  2  7  1  0
  3  4  1  0
  3  8  1  0
  3  9  1  0
  4  5  1  0
  4 10  1  0
  5  6  1  0
  5 11  1  0
  5 12  1  0
  6  7  1  0
  6 13  1  0
  6 14  1  0
  7 15  1  0
M  END
> <intraLJ>
0.615     

> <intraEL>
3.232     

> <intraDihe>
15.833    

> <interLJ>
0.000     

> <interEJ>
0.000     

> <gridLJ>
-2.214    

> <gridEL>
0.000     

> <totalE>
17.466    

> <LGFE>
-2.214  

> <LE>
-0.316  

> <SMILES>
O=C1CNCCN1

> <atom.dprop.GFE>
-1 0 -0.14 -0.27 -0.15 -0.18 -0.45 0 0 0 0 0 0 0 0

> <atom.prop.CLASS>
GENA NCLA PRPC GEND PRPC PRPC GEND NCLA NCLA NCLA NCLA NCLA NCLA NCLA NCLA

$$$$
31_1
     RDKit          3D

 15 15  0  0  0  0  0  0  0  0999 V2000
   15.9871   15.7961  -20.7162 O   0  0  0  0  0  0  0  0  0  0  0  0
   17.1515   15.4990  -20.4885 C   0  0  0  0  0  0  0  0  0  0  0  0
   17.6994   15.4424  -19.0373 C   0  0  0  0  0  0  0  0  0  0  0  0
   19.0241   14.7532  -18.8648 N   0  0  0  0  0  0  0  0  0  0  0  0
   19.9220   15.0954  -19.9998 C   0  0  0  0  0  0  0  0  0  0  0  0
   19.2952   14.6638  -21.3376 C   0  0  0  0  0  0  0  0  0  0  0  0
   17.9856   15.2918  -21.5080 N   0  0  0  0  0  0  0  0  0  0  0  0
   16.9506   14.9585  -18.4091 H   0  0  0  0  0  0  0  0  0  0  0  0
   17.8018   16.4732  -18.6994 H   0  0  0  0  0  0  0  0  0  0  0  0
   18.8730   13.7516  -18.8430 H   0  0  0  0  0  0  0  0  0  0  0  0
   20.8825   14.5919  -19.8743 H   0  0  0  0  0  0  0  0  0  0  0  0
   20.0995   16.1730  -20.0194 H   0  0  0  0  0  0  0  0  0  0  0  0
   19.1864   13.5781  -21.3479 H   0  0  0  0  0  0  0  0  0  0  0  0
   19.9566   14.9603  -22.1536 H   0  0  0  0  0  0  0  0  0  0  0  0
   17.5875   15.3906  -22.4272 H   0  0  0  0  0  0  0  0  0  0  0  0
  1  2  2  0
  2  3  1  0
  2  7  1  0
  3  4  1  0
  3  8  1  0
  3  9  1  0
  4  5  1  0
  4 10  1  0
  5  6  1  0
  5 11  1  0
  5 12  1  0
  6  7  1  0
  6 13  1  0
  6 14  1  0
  7 15  1  0
M  END
> <intraLJ>
0.615     

> <intraEL>
3.232     

> <intraDihe>
15.833    

> <interLJ>
0.000     

> <interEJ>
0.000     

> <gridLJ>
-2.184    

> <gridEL>
0.000     

> <totalE>
17.497    

> <LGFE>
-2.184  

> <LE>
-0.312  

> <SMILES>
O=C1CNCCN1

> <atom.dprop.GFE>
-0.9 0 -0.038 -0.42 -0.25 -0.21 -0.37 0 0 0 0 0 0 0 0

> <atom.prop.CLASS>
GENA NCLA PRPC GEND PRPC PRPC GEND NCLA NCLA NCLA NCLA NCLA NCLA NCLA NCLA

$$$$
31_1
     RDKit          3D

 15 15  0  0  0  0  0  0  0  0999 V2000
  -26.9851  -17.5703   23.1801 O   0  0  0  0  0  0  0  0  0  0  0  0
  -26.0571  -16.7847   23.0471 C   0  0  0  0  0  0  0  0  0  0  0  0
  -25.9524  -15.8653   21.8008 C   0  0  0  0  0  0  0  0  0  0  0  0
  -24.9738  -14.7291   21.9067 N   0  0  0  0  0  0  0  0  0  0  0  0
  -23.7489  -15.1834   22.6171 C   0  0  0  0  0  0  0  0  0  0  0  0
  -24.0954  -15.6885   24.0290 C   0  0  0  0  0  0  0  0  0  0  0  0
  -25.0780  -16.7689   23.9521 N   0  0  0  0  0  0  0  0  0  0  0  0
  -26.9463  -15.4731   21.5823 H   0  0  0  0  0  0  0  0  0  0  0  0
  -25.6538  -16.4993   20.9665 H   0  0  0  0  0  0  0  0  0  0  0  0
  -25.4041  -13.9721   22.4246 H   0  0  0  0  0  0  0  0  0  0  0  0
  -23.0405  -14.3563   22.6954 H   0  0  0  0  0  0  0  0  0  0  0  0
  -23.2732  -15.9904   22.0554 H   0  0  0  0  0  0  0  0  0  0  0  0
  -24.5023  -14.8626   24.6146 H   0  0  0  0  0  0  0  0  0  0  0  0
  -23.1857  -16.0497   24.5120 H   0  0  0  0  0  0  0  0  0  0  0  0
  -25.1736  -17.4212   24.7128 H   0  0  0  0  0  0  0  0  0  0  0  0
  1  2  2  0
  2  3  1  0
  2  7  1  0
  3  4  1  0
  3  8  1  0
  3  9  1  0
  4  5  1  0
  4 10  1  0
  5  6  1  0
  5 11  1  0
  5 12  1  0
  6  7  1  0
  6 13  1  0
  6 14  1  0
  7 15  1  0
M  END
> <intraLJ>
0.615     

> <intraEL>
3.232     

> <intraDihe>
15.833    

> <interLJ>
0.000     

> <interEJ>
0.000     

> <gridLJ>
-2.167    

> <gridEL>
0.000     

> <totalE>
17.513    

> <LGFE>
-2.167  

> <LE>
-0.310  

> <SMILES>
O=C1CNCCN1

> <atom.dprop.GFE>
-0.4 0 -0.29 -0.8 -0.29 -0.26 -0.13 0 0 0 0 0 0 0 0

> <atom.prop.CLASS>
GENA NCLA PRPC GEND PRPC PRPC GEND NCLA NCLA NCLA NCLA NCLA NCLA NCLA NCLA

$$$$
31_1
     RDKit          3D

 15 15  0  0  0  0  0  0  0  0999 V2000
   -4.0935   10.1380    5.0591 O   0  0  0  0  0  0  0  0  0  0  0  0
   -5.1079   10.4149    5.6840 C   0  0  0  0  0  0  0  0  0  0  0  0
   -5.6071   11.8800    5.8012 C   0  0  0  0  0  0  0  0  0  0  0  0
   -7.0155   12.0532    6.2974 N   0  0  0  0  0  0  0  0  0  0  0  0
   -7.2936   11.0703    7.3782 C   0  0  0  0  0  0  0  0  0  0  0  0
   -7.1095    9.6312    6.8643 C   0  0  0  0  0  0  0  0  0  0  0  0
   -5.7567    9.4514    6.3388 N   0  0  0  0  0  0  0  0  0  0  0  0
   -5.5022   12.3547    4.8249 H   0  0  0  0  0  0  0  0  0  0  0  0
   -4.9345   12.3872    6.4921 H   0  0  0  0  0  0  0  0  0  0  0  0
   -7.6562   11.9001    5.5278 H   0  0  0  0  0  0  0  0  0  0  0  0
   -8.3175   11.1958    7.7355 H   0  0  0  0  0  0  0  0  0  0  0  0
   -6.6144   11.2401    8.2166 H   0  0  0  0  0  0  0  0  0  0  0  0
   -7.8389    9.4367    6.0764 H   0  0  0  0  0  0  0  0  0  0  0  0
   -7.2828    8.9341    7.6860 H   0  0  0  0  0  0  0  0  0  0  0  0
   -5.3597    8.5292    6.2681 H   0  0  0  0  0  0  0  0  0  0  0  0
  1  2  2  0
  2  3  1  0
  2  7  1  0
  3  4  1  0
  3  8  1  0
  3  9  1  0
  4  5  1  0
  4 10  1  0
  5  6  1  0
  5 11  1  0
  5 12  1  0
  6  7  1  0
  6 13  1  0
  6 14  1  0
  7 15  1  0
M  END
> <intraLJ>
0.615     

> <intraEL>
3.232     

> <intraDihe>
15.833    

> <interLJ>
0.000     

> <interEJ>
0.000     

> <gridLJ>
-2.147    

> <gridEL>
0.000     

> <totalE>
17.533    

> <LGFE>
-2.147  

> <LE>
-0.307  

> <SMILES>
O=C1CNCCN1

> <atom.dprop.GFE>
-1.2 0 0.1 -0.57 -0.063 0.0057 -0.43 0 0 0 0 0 0 0 0

> <atom.prop.CLASS>
GENA NCLA PRPC GEND PRPC PRPC GEND NCLA NCLA NCLA NCLA NCLA NCLA NCLA NCLA

$$$$
31_1
     RDKit          3D

 15 15  0  0  0  0  0  0  0  0999 V2000
  -24.7404   -2.8424   -7.5943 O   0  0  0  0  0  0  0  0  0  0  0  0
  -24.5795   -3.9067   -7.0133 C   0  0  0  0  0  0  0  0  0  0  0  0
  -24.9452   -4.0689   -5.5135 C   0  0  0  0  0  0  0  0  0  0  0  0
  -25.0185   -5.4825   -5.0074 N   0  0  0  0  0  0  0  0  0  0  0  0
  -23.9269   -6.2916   -5.6120 C   0  0  0  0  0  0  0  0  0  0  0  0
  -24.0395   -6.2951   -7.1470 C   0  0  0  0  0  0  0  0  0  0  0  0
  -24.0109   -4.9255   -7.6588 N   0  0  0  0  0  0  0  0  0  0  0  0
  -25.8982   -3.5680   -5.3391 H   0  0  0  0  0  0  0  0  0  0  0  0
  -24.1817   -3.5395   -4.9445 H   0  0  0  0  0  0  0  0  0  0  0  0
  -25.9151   -5.8777   -5.2652 H   0  0  0  0  0  0  0  0  0  0  0  0
  -23.9833   -7.3184   -5.2454 H   0  0  0  0  0  0  0  0  0  0  0  0
  -22.9575   -5.8778   -5.3255 H   0  0  0  0  0  0  0  0  0  0  0  0
  -24.9753   -6.7762   -7.4359 H   0  0  0  0  0  0  0  0  0  0  0  0
  -23.2064   -6.8634   -7.5645 H   0  0  0  0  0  0  0  0  0  0  0  0
  -23.7491   -4.7477   -8.6143 H   0  0  0  0  0  0  0  0  0  0  0  0
  1  2  2  0
  2  3  1  0
  2  7  1  0
  3  4  1  0
  3  8  1  0
  3  9  1  0
  4  5  1  0
  4 10  1  0
  5  6  1  0
  5 11  1  0
  5 12  1  0
  6  7  1  0
  6 13  1  0
  6 14  1  0
  7 15  1  0
M  END
> <intraLJ>
0.615     

> <intraEL>
3.232     

> <intraDihe>
15.833    

> <interLJ>
0.000     

> <interEJ>
0.000     

> <gridLJ>
-2.146    

> <gridEL>
0.000     

> <totalE>
17.534    

> <LGFE>
-2.146  

> <LE>
-0.307  

> <SMILES>
O=C1CNCCN1

> <atom.dprop.GFE>
-0.7 0 -0.2 -0.28 -0.27 -0.26 -0.44 0 0 0 0 0 0 0 0

> <atom.prop.CLASS>
GENA NCLA PRPC GEND PRPC PRPC GEND NCLA NCLA NCLA NCLA NCLA NCLA NCLA NCLA

$$$$
31_1
     RDKit          3D

 15 15  0  0  0  0  0  0  0  0999 V2000
   21.8825   13.3341  -17.8583 O   0  0  0  0  0  0  0  0  0  0  0  0
   22.7453   12.5607  -17.4664 C   0  0  0  0  0  0  0  0  0  0  0  0
   24.1333   13.0731  -16.9970 C   0  0  0  0  0  0  0  0  0  0  0  0
   24.9726   12.0844  -16.2369 N   0  0  0  0  0  0  0  0  0  0  0  0
   24.8293   10.7327  -16.8402 C   0  0  0  0  0  0  0  0  0  0  0  0
   23.3591   10.2783  -16.8123 C   0  0  0  0  0  0  0  0  0  0  0  0
   22.5173   11.2478  -17.5124 N   0  0  0  0  0  0  0  0  0  0  0  0
   23.9792   13.9657  -16.3895 H   0  0  0  0  0  0  0  0  0  0  0  0
   24.6783   13.3698  -17.8925 H   0  0  0  0  0  0  0  0  0  0  0  0
   24.6598   12.0599  -15.2736 H   0  0  0  0  0  0  0  0  0  0  0  0
   25.4374   10.0155  -16.2853 H   0  0  0  0  0  0  0  0  0  0  0  0
   25.1785   10.7504  -17.8750 H   0  0  0  0  0  0  0  0  0  0  0  0
   23.0320   10.1886  -15.7752 H   0  0  0  0  0  0  0  0  0  0  0  0
   23.2781    9.3023  -17.2939 H   0  0  0  0  0  0  0  0  0  0  0  0
   21.6188   10.9711  -17.8722 H   0  0  0  0  0  0  0  0  0  0  0  0
  1  2  2  0
  2  3  1  0
  2  7  1  0
  3  4  1  0
  3  8  1  0
  3  9  1  0
  4  5  1  0
  4 10  1  0
  5  6  1  0
  5 11  1  0
  5 12  1  0
  6  7  1  0
  6 13  1  0
  6 14  1  0
  7 15  1  0
M  END
> <intraLJ>
0.615     

> <intraEL>
3.232     

> <intraDihe>
15.833    

> <interLJ>
0.000     

> <interEJ>
0.000     

> <gridLJ>
-2.131    

> <gridEL>
0.000     

> <totalE>
17.549    

> <LGFE>
-2.131  

> <LE>
-0.304  

> <SMILES>
O=C1CNCCN1

> <atom.dprop.GFE>
-0.56 0 -0.32 -0.24 -0.24 -0.33 -0.44 0 0 0 0 0 0 0 0

> <atom.prop.CLASS>
GENA NCLA PRPC GEND PRPC PRPC GEND NCLA NCLA NCLA NCLA NCLA NCLA NCLA NCLA

$$$$
31_1
     RDKit          3D

 15 15  0  0  0  0  0  0  0  0999 V2000
    9.7380  -10.0243  -30.8518 O   0  0  0  0  0  0  0  0  0  0  0  0
   10.0894   -9.8553  -29.6925 C   0  0  0  0  0  0  0  0  0  0  0  0
    9.0500   -9.6675  -28.5550 C   0  0  0  0  0  0  0  0  0  0  0  0
    9.5809   -9.8026  -27.1551 N   0  0  0  0  0  0  0  0  0  0  0  0
   10.9254   -9.1738  -27.0631 C   0  0  0  0  0  0  0  0  0  0  0  0
   11.9055   -9.8408  -28.0446 C   0  0  0  0  0  0  0  0  0  0  0  0
   11.3888   -9.7566  -29.4101 N   0  0  0  0  0  0  0  0  0  0  0  0
    8.2418  -10.3832  -28.7104 H   0  0  0  0  0  0  0  0  0  0  0  0
    8.6352   -8.6666  -28.6700 H   0  0  0  0  0  0  0  0  0  0  0  0
    9.6510  -10.7864  -26.9238 H   0  0  0  0  0  0  0  0  0  0  0  0
   11.3105   -9.2751  -26.0466 H   0  0  0  0  0  0  0  0  0  0  0  0
   10.8530   -8.1095  -27.2980 H   0  0  0  0  0  0  0  0  0  0  0  0
   12.0355  -10.8873  -27.7646 H   0  0  0  0  0  0  0  0  0  0  0  0
   12.8712   -9.3359  -27.9829 H   0  0  0  0  0  0  0  0  0  0  0  0
   12.0151   -9.8365  -30.1940 H   0  0  0  0  0  0  0  0  0  0  0  0
  1  2  2  0
  2  3  1  0
  2  7  1  0
  3  4  1  0
  3  8  1  0
  3  9  1  0
  4  5  1  0
  4 10  1  0
  5  6  1  0
  5 11  1  0
  5 12  1  0
  6  7  1  0
  6 13  1  0
  6 14  1  0
  7 15  1  0
M  END
> <intraLJ>
0.615     

> <intraEL>
3.232     

> <intraDihe>
15.833    

> <interLJ>
0.000     

> <interEJ>
0.000     

> <gridLJ>
-2.138    

> <gridEL>
0.000     

> <totalE>
17.542    

> <LGFE>
-2.138  

> <LE>
-0.305  

> <SMILES>
O=C1CNCCN1

> <atom.dprop.GFE>
-0.63 0 -0.3 -0.16 -0.33 -0.41 -0.3 0 0 0 0 0 0 0 0

> <atom.prop.CLASS>
GENA NCLA PRPC GEND PRPC PRPC GEND NCLA NCLA NCLA NCLA NCLA NCLA NCLA NCLA

$$$$
31_1
     RDKit          3D

 15 15  0  0  0  0  0  0  0  0999 V2000
  -22.5862   -4.9869   30.5827 O   0  0  0  0  0  0  0  0  0  0  0  0
  -23.4068   -4.1526   30.9387 C   0  0  0  0  0  0  0  0  0  0  0  0
  -23.0841   -3.1349   32.0654 C   0  0  0  0  0  0  0  0  0  0  0  0
  -24.0245   -1.9680   32.1816 N   0  0  0  0  0  0  0  0  0  0  0  0
  -25.4216   -2.4214   31.9488 C   0  0  0  0  0  0  0  0  0  0  0  0
  -25.5629   -3.0503   30.5512 C   0  0  0  0  0  0  0  0  0  0  0  0
  -24.6271   -4.1641   30.4014 N   0  0  0  0  0  0  0  0  0  0  0  0
  -22.0668   -2.7715   31.9150 H   0  0  0  0  0  0  0  0  0  0  0  0
  -23.1048   -3.6878   33.0040 H   0  0  0  0  0  0  0  0  0  0  0  0
  -23.7741   -1.2737   31.4877 H   0  0  0  0  0  0  0  0  0  0  0  0
  -26.1029   -1.5722   32.0310 H   0  0  0  0  0  0  0  0  0  0  0  0
  -25.7016   -3.1600   32.7032 H   0  0  0  0  0  0  0  0  0  0  0  0
  -25.3555   -2.2916   29.7949 H   0  0  0  0  0  0  0  0  0  0  0  0
  -26.5863   -3.4072   30.4223 H   0  0  0  0  0  0  0  0  0  0  0  0
  -24.7958   -4.8774   29.7115 H   0  0  0  0  0  0  0  0  0  0  0  0
  1  2  2  0
  2  3  1  0
  2  7  1  0
  3  4  1  0
  3  8  1  0
  3  9  1  0
  4  5  1  0
  4 10  1  0
  5  6  1  0
  5 11  1  0
  5 12  1  0
  6  7  1  0
  6 13  1  0
  6 14  1  0
  7 15  1  0
M  END
> <intraLJ>
0.615     

> <intraEL>
3.232     

> <intraDihe>
15.833    

> <interLJ>
0.000     

> <interEJ>
0.000     

> <gridLJ>
-2.132    

> <gridEL>
0.000     

> <totalE>
17.548    

> <LGFE>
-2.132  

> <LE>
-0.305  

> <SMILES>
O=C1CNCCN1

> <atom.dprop.GFE>
-0.58 0 -0.25 -0.35 -0.18 -0.3 -0.47 0 0 0 0 0 0 0 0

> <atom.prop.CLASS>
GENA NCLA PRPC GEND PRPC PRPC GEND NCLA NCLA NCLA NCLA NCLA NCLA NCLA NCLA

$$$$
31_1
     RDKit          3D

 15 15  0  0  0  0  0  0  0  0999 V2000
  -26.5245  -10.4228   29.6624 O   0  0  0  0  0  0  0  0  0  0  0  0
  -27.1279  -10.2455   28.6133 C   0  0  0  0  0  0  0  0  0  0  0  0
  -26.4294   -9.6148   27.3789 C   0  0  0  0  0  0  0  0  0  0  0  0
  -27.1595   -9.7540   26.0723 N   0  0  0  0  0  0  0  0  0  0  0  0
  -28.6197   -9.5745   26.2892 C   0  0  0  0  0  0  0  0  0  0  0  0
  -29.1539  -10.6209   27.2835 C   0  0  0  0  0  0  0  0  0  0  0  0
  -28.4290  -10.5304   28.5504 N   0  0  0  0  0  0  0  0  0  0  0  0
  -25.4342  -10.0521   27.2904 H   0  0  0  0  0  0  0  0  0  0  0  0
  -26.3089   -8.5536   27.5939 H   0  0  0  0  0  0  0  0  0  0  0  0
  -26.9846  -10.6778   25.6949 H   0  0  0  0  0  0  0  0  0  0  0  0
  -29.1486   -9.6785   25.3398 H   0  0  0  0  0  0  0  0  0  0  0  0
  -28.8152   -8.5746   26.6831 H   0  0  0  0  0  0  0  0  0  0  0  0
  -29.0264  -11.6172   26.8573 H   0  0  0  0  0  0  0  0  0  0  0  0
  -30.2174  -10.4423   27.4524 H   0  0  0  0  0  0  0  0  0  0  0  0
  -28.8405  -10.8901   29.3957 H   0  0  0  0  0  0  0  0  0  0  0  0
  1  2  2  0
  2  3  1  0
  2  7  1  0
  3  4  1  0
  3  8  1  0
  3  9  1  0
  4  5  1  0
  4 10  1  0
  5  6  1  0
  5 11  1  0
  5 12  1  0
  6  7  1  0
  6 13  1  0
  6 14  1  0
  7 15  1  0
M  END
> <intraLJ>
0.615     

> <intraEL>
3.232     

> <intraDihe>
15.833    

> <interLJ>
0.000     

> <interEJ>
0.000     

> <gridLJ>
-2.108    

> <gridEL>
0.000     

> <totalE>
17.572    

> <LGFE>
-2.108  

> <LE>
-0.301  

> <SMILES>
O=C1CNCCN1

> <atom.dprop.GFE>
-0.56 0 -0.19 -0.16 -0.37 -0.42 -0.42 0 0 0 0 0 0 0 0

> <atom.prop.CLASS>
GENA NCLA PRPC GEND PRPC PRPC GEND NCLA NCLA NCLA NCLA NCLA NCLA NCLA NCLA

$$$$
31_1
     RDKit          3D

 15 15  0  0  0  0  0  0  0  0999 V2000
   -8.1952   -3.9110   10.4621 O   0  0  0  0  0  0  0  0  0  0  0  0
   -8.6500   -5.0384   10.3268 C   0  0  0  0  0  0  0  0  0  0  0  0
   -9.8220   -5.5454   11.2093 C   0  0  0  0  0  0  0  0  0  0  0  0
  -10.5036   -6.7982   10.7345 N   0  0  0  0  0  0  0  0  0  0  0  0
   -9.4938   -7.7492   10.1982 C   0  0  0  0  0  0  0  0  0  0  0  0
   -8.7201   -7.1170    9.0275 C   0  0  0  0  0  0  0  0  0  0  0  0
   -8.0812   -5.8736    9.4569 N   0  0  0  0  0  0  0  0  0  0  0  0
  -10.5540   -4.7417   11.2980 H   0  0  0  0  0  0  0  0  0  0  0  0
   -9.4111   -5.7325   12.2009 H   0  0  0  0  0  0  0  0  0  0  0  0
  -11.1627   -6.5570   10.0039 H   0  0  0  0  0  0  0  0  0  0  0  0
   -9.9908   -8.6573    9.8514 H   0  0  0  0  0  0  0  0  0  0  0  0
   -8.7887   -8.0235   10.9860 H   0  0  0  0  0  0  0  0  0  0  0  0
   -9.4133   -6.9110    8.2103 H   0  0  0  0  0  0  0  0  0  0  0  0
   -7.9624   -7.8210    8.6790 H   0  0  0  0  0  0  0  0  0  0  0  0
   -7.2938   -5.5072    8.9479 H   0  0  0  0  0  0  0  0  0  0  0  0
  1  2  2  0
  2  3  1  0
  2  7  1  0
  3  4  1  0
  3  8  1  0
  3  9  1  0
  4  5  1  0
  4 10  1  0
  5  6  1  0
  5 11  1  0
  5 12  1  0
  6  7  1  0
  6 13  1  0
  6 14  1  0
  7 15  1  0
M  END
> <intraLJ>
0.615     

> <intraEL>
3.232     

> <intraDihe>
15.833    

> <interLJ>
0.000     

> <interEJ>
0.000     

> <gridLJ>
-2.097    

> <gridEL>
0.000     

> <totalE>
17.583    

> <LGFE>
-2.097  

> <LE>
-0.300  

> <SMILES>
O=C1CNCCN1

> <atom.dprop.GFE>
-0.44 0 -0.32 -0.47 -0.16 -0.26 -0.45 0 0 0 0 0 0 0 0

> <atom.prop.CLASS>
GENA NCLA PRPC GEND PRPC PRPC GEND NCLA NCLA NCLA NCLA NCLA NCLA NCLA NCLA

$$$$
31_1
     RDKit          3D

 15 15  0  0  0  0  0  0  0  0999 V2000
  -27.9164    2.0402    3.5880 O   0  0  0  0  0  0  0  0  0  0  0  0
  -28.4855    0.9647    3.7133 C   0  0  0  0  0  0  0  0  0  0  0  0
  -28.7352    0.3439    5.1139 C   0  0  0  0  0  0  0  0  0  0  0  0
  -29.7198   -0.7911    5.1600 N   0  0  0  0  0  0  0  0  0  0  0  0
  -29.5421   -1.6614    3.9673 C   0  0  0  0  0  0  0  0  0  0  0  0
  -29.7537   -0.8577    2.6719 C   0  0  0  0  0  0  0  0  0  0  0  0
  -28.8322    0.2769    2.6249 N   0  0  0  0  0  0  0  0  0  0  0  0
  -29.0615    1.1388    5.7856 H   0  0  0  0  0  0  0  0  0  0  0  0
  -27.7732   -0.0210    5.4723 H   0  0  0  0  0  0  0  0  0  0  0  0
  -30.6590   -0.4113    5.1647 H   0  0  0  0  0  0  0  0  0  0  0  0
  -30.2596   -2.4835    4.0011 H   0  0  0  0  0  0  0  0  0  0  0  0
  -28.5351   -2.0847    3.9649 H   0  0  0  0  0  0  0  0  0  0  0  0
  -30.7830   -0.4969    2.6389 H   0  0  0  0  0  0  0  0  0  0  0  0
  -29.5805   -1.5106    1.8146 H   0  0  0  0  0  0  0  0  0  0  0  0
  -28.6010    0.7049    1.7437 H   0  0  0  0  0  0  0  0  0  0  0  0
  1  2  2  0
  2  3  1  0
  2  7  1  0
  3  4  1  0
  3  8  1  0
  3  9  1  0
  4  5  1  0
  4 10  1  0
  5  6  1  0
  5 11  1  0
  5 12  1  0
  6  7  1  0
  6 13  1  0
  6 14  1  0
  7 15  1  0
M  END
> <intraLJ>
0.615     

> <intraEL>
3.232     

> <intraDihe>
15.833    

> <interLJ>
0.000     

> <interEJ>
0.000     

> <gridLJ>
-2.095    

> <gridEL>
0.000     

> <totalE>
17.585    

> <LGFE>
-2.095  

> <LE>
-0.299  

> <SMILES>
O=C1CNCCN1

> <atom.dprop.GFE>
-0.61 0 -0.41 -0.33 -0.23 -0.19 -0.31 0 0 0 0 0 0 0 0

> <atom.prop.CLASS>
GENA NCLA PRPC GEND PRPC PRPC GEND NCLA NCLA NCLA NCLA NCLA NCLA NCLA NCLA

$$$$
31_1
     RDKit          3D

 15 15  0  0  0  0  0  0  0  0999 V2000
  -30.7739   -4.4521   27.5484 O   0  0  0  0  0  0  0  0  0  0  0  0
  -31.9175   -4.5831   27.1347 C   0  0  0  0  0  0  0  0  0  0  0  0
  -33.1398   -4.3981   28.0734 C   0  0  0  0  0  0  0  0  0  0  0  0
  -34.4720   -4.2549   27.3918 N   0  0  0  0  0  0  0  0  0  0  0  0
  -34.5445   -5.1777   26.2278 C   0  0  0  0  0  0  0  0  0  0  0  0
  -33.4226   -4.8701   25.2200 C   0  0  0  0  0  0  0  0  0  0  0  0
  -32.1173   -4.9642   25.8726 N   0  0  0  0  0  0  0  0  0  0  0  0
  -32.9561   -3.5277   28.7043 H   0  0  0  0  0  0  0  0  0  0  0  0
  -33.1765   -5.2753   28.7185 H   0  0  0  0  0  0  0  0  0  0  0  0
  -34.5768   -3.2990   27.0728 H   0  0  0  0  0  0  0  0  0  0  0  0
  -35.5115   -5.0704   25.7325 H   0  0  0  0  0  0  0  0  0  0  0  0
  -34.4461   -6.2110   26.5680 H   0  0  0  0  0  0  0  0  0  0  0  0
  -33.5638   -3.8633   24.8237 H   0  0  0  0  0  0  0  0  0  0  0  0
  -33.4768   -5.5847   24.3967 H   0  0  0  0  0  0  0  0  0  0  0  0
  -31.2873   -5.1177   25.3243 H   0  0  0  0  0  0  0  0  0  0  0  0
  1  2  2  0
  2  3  1  0
  2  7  1  0
  3  4  1  0
  3  8  1  0
  3  9  1  0
  4  5  1  0
  4 10  1  0
  5  6  1  0
  5 11  1  0
  5 12  1  0
  6  7  1  0
  6 13  1  0
  6 14  1  0
  7 15  1  0
M  END
> <intraLJ>
0.615     

> <intraEL>
3.232     

> <intraDihe>
15.833    

> <interLJ>
0.000     

> <interEJ>
0.000     

> <gridLJ>
-2.062    

> <gridEL>
0.000     

> <totalE>
17.618    

> <LGFE>
-2.062  

> <LE>
-0.295  

> <SMILES>
O=C1CNCCN1

> <atom.dprop.GFE>
-1 0 -0.14 -0.31 -0.13 -0.16 -0.33 0 0 0 0 0 0 0 0

> <atom.prop.CLASS>
GENA NCLA PRPC GEND PRPC PRPC GEND NCLA NCLA NCLA NCLA NCLA NCLA NCLA NCLA

$$$$
31_1
     RDKit          3D

 15 15  0  0  0  0  0  0  0  0999 V2000
  -15.8810   10.9720    2.4089 O   0  0  0  0  0  0  0  0  0  0  0  0
  -16.2069   10.3199    1.4267 C   0  0  0  0  0  0  0  0  0  0  0  0
  -15.1768    9.9545    0.3244 C   0  0  0  0  0  0  0  0  0  0  0  0
  -15.6061    8.8882   -0.6442 N   0  0  0  0  0  0  0  0  0  0  0  0
  -17.0444    9.0618   -0.9802 C   0  0  0  0  0  0  0  0  0  0  0  0
  -17.9127    8.9757    0.2877 C   0  0  0  0  0  0  0  0  0  0  0  0
  -17.4854    9.9793    1.2618 N   0  0  0  0  0  0  0  0  0  0  0  0
  -14.2486    9.6539    0.8118 H   0  0  0  0  0  0  0  0  0  0  0  0
  -14.9782   10.8677   -0.2357 H   0  0  0  0  0  0  0  0  0  0  0  0
  -15.4657    7.9803   -0.2170 H   0  0  0  0  0  0  0  0  0  0  0  0
  -17.3551    8.2850   -1.6816 H   0  0  0  0  0  0  0  0  0  0  0  0
  -17.1990   10.0337   -1.4541 H   0  0  0  0  0  0  0  0  0  0  0  0
  -17.8160    7.9787    0.7205 H   0  0  0  0  0  0  0  0  0  0  0  0
  -18.9567    9.1437    0.0172 H   0  0  0  0  0  0  0  0  0  0  0  0
  -18.1173   10.2857    1.9830 H   0  0  0  0  0  0  0  0  0  0  0  0
  1  2  2  0
  2  3  1  0
  2  7  1  0
  3  4  1  0
  3  8  1  0
  3  9  1  0
  4  5  1  0
  4 10  1  0
  5  6  1  0
  5 11  1  0
  5 12  1  0
  6  7  1  0
  6 13  1  0
  6 14  1  0
  7 15  1  0
M  END
> <intraLJ>
0.615     

> <intraEL>
3.232     

> <intraDihe>
15.833    

> <interLJ>
0.000     

> <interEJ>
0.000     

> <gridLJ>
-2.075    

> <gridEL>
0.000     

> <totalE>
17.605    

> <LGFE>
-2.075  

> <LE>
-0.296  

> <SMILES>
O=C1CNCCN1

> <atom.dprop.GFE>
-0.52 0 -0.11 -0.74 -0.44 -0.27 0.012 0 0 0 0 0 0 0 0

> <atom.prop.CLASS>
GENA NCLA PRPC GEND PRPC PRPC GEND NCLA NCLA NCLA NCLA NCLA NCLA NCLA NCLA

$$$$
31_1
     RDKit          3D

 15 15  0  0  0  0  0  0  0  0999 V2000
  -34.8537   16.4804   24.4768 O   0  0  0  0  0  0  0  0  0  0  0  0
  -34.7885   16.1655   25.6569 C   0  0  0  0  0  0  0  0  0  0  0  0
  -33.4271   16.1028   26.3999 C   0  0  0  0  0  0  0  0  0  0  0  0
  -33.5031   16.0337   27.8996 N   0  0  0  0  0  0  0  0  0  0  0  0
  -34.6289   15.1517   28.3072 C   0  0  0  0  0  0  0  0  0  0  0  0
  -35.9634   15.6838   27.7550 C   0  0  0  0  0  0  0  0  0  0  0  0
  -35.8981   15.7975   26.2984 N   0  0  0  0  0  0  0  0  0  0  0  0
  -32.8367   16.9704   26.1030 H   0  0  0  0  0  0  0  0  0  0  0  0
  -32.9134   15.2117   26.0404 H   0  0  0  0  0  0  0  0  0  0  0  0
  -33.6551   16.9666   28.2642 H   0  0  0  0  0  0  0  0  0  0  0  0
  -34.6842   15.1048   29.3965 H   0  0  0  0  0  0  0  0  0  0  0  0
  -34.4629   14.1407   27.9283 H   0  0  0  0  0  0  0  0  0  0  0  0
  -36.1661   16.6631   28.1915 H   0  0  0  0  0  0  0  0  0  0  0  0
  -36.7648   14.9985   28.0368 H   0  0  0  0  0  0  0  0  0  0  0  0
  -36.7442   15.8097   25.7534 H   0  0  0  0  0  0  0  0  0  0  0  0
  1  2  2  0
  2  3  1  0
  2  7  1  0
  3  4  1  0
  3  8  1  0
  3  9  1  0
  4  5  1  0
  4 10  1  0
  5  6  1  0
  5 11  1  0
  5 12  1  0
  6  7  1  0
  6 13  1  0
  6 14  1  0
  7 15  1  0
M  END
> <intraLJ>
0.615     

> <intraEL>
3.232     

> <intraDihe>
15.833    

> <interLJ>
0.000     

> <interEJ>
0.000     

> <gridLJ>
-2.061    

> <gridEL>
0.000     

> <totalE>
17.619    

> <LGFE>
-2.061  

> <LE>
-0.294  

> <SMILES>
O=C1CNCCN1

> <atom.dprop.GFE>
-0.34 0 -0.35 -0.3 -0.35 -0.27 -0.45 0 0 0 0 0 0 0 0

> <atom.prop.CLASS>
GENA NCLA PRPC GEND PRPC PRPC GEND NCLA NCLA NCLA NCLA NCLA NCLA NCLA NCLA

$$$$
31_1
     RDKit          3D

 15 15  0  0  0  0  0  0  0  0999 V2000
   22.9078   12.2053  -43.3447 O   0  0  0  0  0  0  0  0  0  0  0  0
   23.8058   11.4443  -43.0123 C   0  0  0  0  0  0  0  0  0  0  0  0
   23.9242   10.0223  -43.6235 C   0  0  0  0  0  0  0  0  0  0  0  0
   25.2328    9.3189  -43.3943 N   0  0  0  0  0  0  0  0  0  0  0  0
   25.7174    9.5926  -42.0152 C   0  0  0  0  0  0  0  0  0  0  0  0
   25.9081   11.1040  -41.7962 C   0  0  0  0  0  0  0  0  0  0  0  0
   24.6556   11.8138  -42.0535 N   0  0  0  0  0  0  0  0  0  0  0  0
   23.7303   10.0946  -44.6943 H   0  0  0  0  0  0  0  0  0  0  0  0
   23.1295    9.4226  -43.1809 H   0  0  0  0  0  0  0  0  0  0  0  0
   25.9111    9.6599  -44.0651 H   0  0  0  0  0  0  0  0  0  0  0  0
   26.6690    9.0831  -41.8514 H   0  0  0  0  0  0  0  0  0  0  0  0
   24.9959    9.2141  -41.2875 H   0  0  0  0  0  0  0  0  0  0  0  0
   26.6829   11.4685  -42.4726 H   0  0  0  0  0  0  0  0  0  0  0  0
   26.2271   11.2780  -40.7671 H   0  0  0  0  0  0  0  0  0  0  0  0
   24.5009   12.7266  -41.6585 H   0  0  0  0  0  0  0  0  0  0  0  0
  1  2  2  0
  2  3  1  0
  2  7  1  0
  3  4  1  0
  3  8  1  0
  3  9  1  0
  4  5  1  0
  4 10  1  0
  5  6  1  0
  5 11  1  0
  5 12  1  0
  6  7  1  0
  6 13  1  0
  6 14  1  0
  7 15  1  0
M  END
> <intraLJ>
0.615     

> <intraEL>
3.232     

> <intraDihe>
15.833    

> <interLJ>
0.000     

> <interEJ>
0.000     

> <gridLJ>
-2.050    

> <gridEL>
0.000     

> <totalE>
17.630    

> <LGFE>
-2.050  

> <LE>
-0.293  

> <SMILES>
O=C1CNCCN1

> <atom.dprop.GFE>
-0.88 0 -0.18 -0.27 -0.23 -0.16 -0.33 0 0 0 0 0 0 0 0

> <atom.prop.CLASS>
GENA NCLA PRPC GEND PRPC PRPC GEND NCLA NCLA NCLA NCLA NCLA NCLA NCLA NCLA

$$$$
31_1
     RDKit          3D

 15 15  0  0  0  0  0  0  0  0999 V2000
   24.8610   -0.8329  -23.5382 O   0  0  0  0  0  0  0  0  0  0  0  0
   24.4789   -0.4968  -22.4259 C   0  0  0  0  0  0  0  0  0  0  0  0
   23.3404    0.5428  -22.2454 C   0  0  0  0  0  0  0  0  0  0  0  0
   22.7402    0.6231  -20.8696 N   0  0  0  0  0  0  0  0  0  0  0  0
   23.8089    0.4856  -19.8446 C   0  0  0  0  0  0  0  0  0  0  0  0
   24.5423   -0.8585  -20.0012 C   0  0  0  0  0  0  0  0  0  0  0  0
   25.1005   -0.9756  -21.3478 N   0  0  0  0  0  0  0  0  0  0  0  0
   22.5588    0.3218  -22.9733 H   0  0  0  0  0  0  0  0  0  0  0  0
   23.7613    1.5165  -22.4941 H   0  0  0  0  0  0  0  0  0  0  0  0
   22.0680   -0.1269  -20.7600 H   0  0  0  0  0  0  0  0  0  0  0  0
   23.3710    0.5415  -18.8461 H   0  0  0  0  0  0  0  0  0  0  0  0
   24.5292    1.3001  -19.9494 H   0  0  0  0  0  0  0  0  0  0  0  0
   23.8383   -1.6729  -19.8229 H   0  0  0  0  0  0  0  0  0  0  0  0
   25.3436   -0.9159  -19.2624 H   0  0  0  0  0  0  0  0  0  0  0  0
   25.8636   -1.6073  -21.5261 H   0  0  0  0  0  0  0  0  0  0  0  0
  1  2  2  0
  2  3  1  0
  2  7  1  0
  3  4  1  0
  3  8  1  0
  3  9  1  0
  4  5  1  0
  4 10  1  0
  5  6  1  0
  5 11  1  0
  5 12  1  0
  6  7  1  0
  6 13  1  0
  6 14  1  0
  7 15  1  0
M  END
> <intraLJ>
0.615     

> <intraEL>
3.232     

> <intraDihe>
15.833    

> <interLJ>
0.000     

> <interEJ>
0.000     

> <gridLJ>
-2.036    

> <gridEL>
0.000     

> <totalE>
17.644    

> <LGFE>
-2.036  

> <LE>
-0.291  

> <SMILES>
O=C1CNCCN1

> <atom.dprop.GFE>
-0.32 0 -0.44 -0.63 -0.44 -0.28 0.068 0 0 0 0 0 0 0 0

> <atom.prop.CLASS>
GENA NCLA PRPC GEND PRPC PRPC GEND NCLA NCLA NCLA NCLA NCLA NCLA NCLA NCLA

$$$$
31_1
     RDKit          3D

 15 15  0  0  0  0  0  0  0  0999 V2000
  -33.1912   -6.1156   21.5459 O   0  0  0  0  0  0  0  0  0  0  0  0
  -33.0513   -5.9598   20.3409 C   0  0  0  0  0  0  0  0  0  0  0  0
  -32.0931   -4.8779   19.7744 C   0  0  0  0  0  0  0  0  0  0  0  0
  -31.7555   -5.0027   18.3149 N   0  0  0  0  0  0  0  0  0  0  0  0
  -32.9625   -5.4188   17.5522 C   0  0  0  0  0  0  0  0  0  0  0  0
  -33.4926   -6.7685   18.0681 C   0  0  0  0  0  0  0  0  0  0  0  0
  -33.7899   -6.6816   19.4974 N   0  0  0  0  0  0  0  0  0  0  0  0
  -31.1760   -4.8924   20.3646 H   0  0  0  0  0  0  0  0  0  0  0  0
  -32.5767   -3.9147   19.9341 H   0  0  0  0  0  0  0  0  0  0  0  0
  -31.0285   -5.6995   18.2042 H   0  0  0  0  0  0  0  0  0  0  0  0
  -32.7148   -5.5116   16.4930 H   0  0  0  0  0  0  0  0  0  0  0  0
  -33.7449   -4.6638   17.6568 H   0  0  0  0  0  0  0  0  0  0  0  0
  -32.7390   -7.5385   17.8955 H   0  0  0  0  0  0  0  0  0  0  0  0
  -34.3978   -7.0304   17.5174 H   0  0  0  0  0  0  0  0  0  0  0  0
  -34.4299   -7.3324   19.9217 H   0  0  0  0  0  0  0  0  0  0  0  0
  1  2  2  0
  2  3  1  0
  2  7  1  0
  3  4  1  0
  3  8  1  0
  3  9  1  0
  4  5  1  0
  4 10  1  0
  5  6  1  0
  5 11  1  0
  5 12  1  0
  6  7  1  0
  6 13  1  0
  6 14  1  0
  7 15  1  0
M  END
> <intraLJ>
0.615     

> <intraEL>
3.232     

> <intraDihe>
15.833    

> <interLJ>
0.000     

> <interEJ>
0.000     

> <gridLJ>
-2.043    

> <gridEL>
0.000     

> <totalE>
17.637    

> <LGFE>
-2.043  

> <LE>
-0.292  

> <SMILES>
O=C1CNCCN1

> <atom.dprop.GFE>
-0.55 0 -0.18 -0.8 -0.18 -0.16 -0.17 0 0 0 0 0 0 0 0

> <atom.prop.CLASS>
GENA NCLA PRPC GEND PRPC PRPC GEND NCLA NCLA NCLA NCLA NCLA NCLA NCLA NCLA

$$$$
31_1
     RDKit          3D

 15 15  0  0  0  0  0  0  0  0999 V2000
  -14.4783    6.3112  -17.2002 O   0  0  0  0  0  0  0  0  0  0  0  0
  -13.9638    6.2073  -18.3050 C   0  0  0  0  0  0  0  0  0  0  0  0
  -13.0638    4.9945  -18.6637 C   0  0  0  0  0  0  0  0  0  0  0  0
  -12.7686    4.8090  -20.1260 N   0  0  0  0  0  0  0  0  0  0  0  0
  -12.5462    6.1322  -20.7671 C   0  0  0  0  0  0  0  0  0  0  0  0
  -13.7877    7.0280  -20.6092 C   0  0  0  0  0  0  0  0  0  0  0  0
  -14.1177    7.1894  -19.1937 N   0  0  0  0  0  0  0  0  0  0  0  0
  -13.5333    4.0931  -18.2679 H   0  0  0  0  0  0  0  0  0  0  0  0
  -12.1201    5.1367  -18.1380 H   0  0  0  0  0  0  0  0  0  0  0  0
  -13.5575    4.3488  -20.5646 H   0  0  0  0  0  0  0  0  0  0  0  0
  -12.3346    5.9957  -21.8295 H   0  0  0  0  0  0  0  0  0  0  0  0
  -11.6877    6.6267  -20.3071 H   0  0  0  0  0  0  0  0  0  0  0  0
  -14.6283    6.5699  -21.1328 H   0  0  0  0  0  0  0  0  0  0  0  0
  -13.5831    8.0031  -21.0548 H   0  0  0  0  0  0  0  0  0  0  0  0
  -14.6701    7.9737  -18.8891 H   0  0  0  0  0  0  0  0  0  0  0  0
  1  2  2  0
  2  3  1  0
  2  7  1  0
  3  4  1  0
  3  8  1  0
  3  9  1  0
  4  5  1  0
  4 10  1  0
  5  6  1  0
  5 11  1  0
  5 12  1  0
  6  7  1  0
  6 13  1  0
  6 14  1  0
  7 15  1  0
M  END
> <intraLJ>
0.615     

> <intraEL>
3.232     

> <intraDihe>
15.833    

> <interLJ>
0.000     

> <interEJ>
0.000     

> <gridLJ>
-1.990    

> <gridEL>
0.000     

> <totalE>
17.690    

> <LGFE>
-1.990  

> <LE>
-0.284  

> <SMILES>
O=C1CNCCN1

> <atom.dprop.GFE>
-1.1 0 -0.17 -0.32 -0.039 0.01 -0.42 0 0 0 0 0 0 0 0

> <atom.prop.CLASS>
GENA NCLA PRPC GEND PRPC PRPC GEND NCLA NCLA NCLA NCLA NCLA NCLA NCLA NCLA

$$$$
31_1
     RDKit          3D

 15 15  0  0  0  0  0  0  0  0999 V2000
   -9.2314   -5.0241   11.1576 O   0  0  0  0  0  0  0  0  0  0  0  0
   -9.3519   -6.0330   10.4766 C   0  0  0  0  0  0  0  0  0  0  0  0
   -8.7547   -6.1153    9.0462 C   0  0  0  0  0  0  0  0  0  0  0  0
   -8.6755   -7.4925    8.4488 N   0  0  0  0  0  0  0  0  0  0  0  0
   -9.8932   -8.2677    8.8063 C   0  0  0  0  0  0  0  0  0  0  0  0
  -10.0340   -8.3843   10.3345 C   0  0  0  0  0  0  0  0  0  0  0  0
  -10.0723   -7.0542   10.9412 N   0  0  0  0  0  0  0  0  0  0  0  0
   -7.7605   -5.6673    9.0658 H   0  0  0  0  0  0  0  0  0  0  0  0
   -9.3851   -5.4989    8.4062 H   0  0  0  0  0  0  0  0  0  0  0  0
   -7.8558   -7.9625    8.8143 H   0  0  0  0  0  0  0  0  0  0  0  0
   -9.8328   -9.2684    8.3739 H   0  0  0  0  0  0  0  0  0  0  0  0
  -10.7790   -7.7724    8.4024 H   0  0  0  0  0  0  0  0  0  0  0  0
   -9.1854   -8.9445   10.7302 H   0  0  0  0  0  0  0  0  0  0  0  0
  -10.9535   -8.9239   10.5679 H   0  0  0  0  0  0  0  0  0  0  0  0
  -10.4773   -6.9258   11.8538 H   0  0  0  0  0  0  0  0  0  0  0  0
  1  2  2  0
  2  3  1  0
  2  7  1  0
  3  4  1  0
  3  8  1  0
  3  9  1  0
  4  5  1  0
  4 10  1  0
  5  6  1  0
  5 11  1  0
  5 12  1  0
  6  7  1  0
  6 13  1  0
  6 14  1  0
  7 15  1  0
M  END
> <intraLJ>
0.615     

> <intraEL>
3.232     

> <intraDihe>
15.833    

> <interLJ>
0.000     

> <interEJ>
0.000     

> <gridLJ>
-2.023    

> <gridEL>
0.000     

> <totalE>
17.657    

> <LGFE>
-2.023  

> <LE>
-0.289  

> <SMILES>
O=C1CNCCN1

> <atom.dprop.GFE>
-0.83 0 -0.17 -0.55 -0.027 0.012 -0.47 0 0 0 0 0 0 0 0

> <atom.prop.CLASS>
GENA NCLA PRPC GEND PRPC PRPC GEND NCLA NCLA NCLA NCLA NCLA NCLA NCLA NCLA

$$$$
31_1
     RDKit          3D

 15 15  0  0  0  0  0  0  0  0999 V2000
  -43.8867   10.7883   21.0285 O   0  0  0  0  0  0  0  0  0  0  0  0
  -43.7378   10.7129   22.2402 C   0  0  0  0  0  0  0  0  0  0  0  0
  -43.4399    9.3557   22.9322 C   0  0  0  0  0  0  0  0  0  0  0  0
  -42.9532    9.4386   24.3521 N   0  0  0  0  0  0  0  0  0  0  0  0
  -43.6869   10.5115   25.0746 C   0  0  0  0  0  0  0  0  0  0  0  0
  -43.4775   11.8718   24.3857 C   0  0  0  0  0  0  0  0  0  0  0  0
  -43.9074   11.8026   22.9896 N   0  0  0  0  0  0  0  0  0  0  0  0
  -42.7103    8.8173   22.3262 H   0  0  0  0  0  0  0  0  0  0  0  0
  -44.3684    8.7859   22.9200 H   0  0  0  0  0  0  0  0  0  0  0  0
  -41.9624    9.6501   24.3480 H   0  0  0  0  0  0  0  0  0  0  0  0
  -43.3304   10.5721   26.1047 H   0  0  0  0  0  0  0  0  0  0  0  0
  -44.7545   10.2813   25.0941 H   0  0  0  0  0  0  0  0  0  0  0  0
  -42.4201   12.1373   24.4320 H   0  0  0  0  0  0  0  0  0  0  0  0
  -44.0561   12.6319   24.9136 H   0  0  0  0  0  0  0  0  0  0  0  0
  -44.1483   12.6438   22.4920 H   0  0  0  0  0  0  0  0  0  0  0  0
  1  2  2  0
  2  3  1  0
  2  7  1  0
  3  4  1  0
  3  8  1  0
  3  9  1  0
  4  5  1  0
  4 10  1  0
  5  6  1  0
  5 11  1  0
  5 12  1  0
  6  7  1  0
  6 13  1  0
  6 14  1  0
  7 15  1  0
M  END
> <intraLJ>
0.615     

> <intraEL>
3.232     

> <intraDihe>
15.833    

> <interLJ>
0.000     

> <interEJ>
0.000     

> <gridLJ>
-2.032    

> <gridEL>
0.000     

> <totalE>
17.648    

> <LGFE>
-2.032  

> <LE>
-0.290  

> <SMILES>
O=C1CNCCN1

> <atom.dprop.GFE>
-0.49 0 -0.18 -0.45 -0.25 -0.25 -0.41 0 0 0 0 0 0 0 0

> <atom.prop.CLASS>
GENA NCLA PRPC GEND PRPC PRPC GEND NCLA NCLA NCLA NCLA NCLA NCLA NCLA NCLA

$$$$
