34
     RDKit          3D

 19 19  0  0  0  0  0  0  0  0999 V2000
  -15.1685    6.8541   -0.8360 O   0  0  0  0  0  0  0  0  0  0  0  0
  -16.2032    7.2669   -1.6972 C   0  0  0  0  0  0  0  0  0  0  0  0
  -17.4479    7.5840   -0.8609 C   0  0  0  0  0  0  0  0  0  0  0  0
  -18.6469    7.9289   -1.7603 C   0  0  0  0  0  0  0  0  0  0  0  0
  -18.9246    6.7985   -2.7620 C   0  0  0  0  0  0  0  0  0  0  0  0
  -17.6767    6.4786   -3.5989 C   0  0  0  0  0  0  0  0  0  0  0  0
  -16.4847    6.1367   -2.6919 C   0  0  0  0  0  0  0  0  0  0  0  0
  -14.9883    7.5588   -0.2103 H   0  0  0  0  0  0  0  0  0  0  0  0
  -15.8953    8.1590   -2.2473 H   0  0  0  0  0  0  0  0  0  0  0  0
  -17.2387    8.4275   -0.2023 H   0  0  0  0  0  0  0  0  0  0  0  0
  -17.6960    6.7155   -0.2495 H   0  0  0  0  0  0  0  0  0  0  0  0
  -18.4361    8.8508   -2.3070 H   0  0  0  0  0  0  0  0  0  0  0  0
  -19.5302    8.0894   -1.1410 H   0  0  0  0  0  0  0  0  0  0  0  0
  -19.7408    7.0927   -3.4243 H   0  0  0  0  0  0  0  0  0  0  0  0
  -19.2309    5.9030   -2.2179 H   0  0  0  0  0  0  0  0  0  0  0  0
  -17.4248    7.3416   -4.2190 H   0  0  0  0  0  0  0  0  0  0  0  0
  -17.8868    5.6321   -4.2547 H   0  0  0  0  0  0  0  0  0  0  0  0
  -16.7007    5.2215   -2.1378 H   0  0  0  0  0  0  0  0  0  0  0  0
  -15.5970    5.9698   -3.3026 H   0  0  0  0  0  0  0  0  0  0  0  0
  1  2  1  0
  1  8  1  0
  2  3  1  0
  2  7  1  0
  2  9  1  0
  3  4  1  0
  3 10  1  0
  3 11  1  0
  4  5  1  0
  4 12  1  0
  4 13  1  0
  5  6  1  0
  5 14  1  0
  5 15  1  0
  6  7  1  0
  6 16  1  0
  6 17  1  0
  7 18  1  0
  7 19  1  0
M  END
> <intraLJ>
-0.471    

> <intraEL>
-1.198    

> <intraDihe>
8.631     

> <interLJ>
0.000     

> <interEJ>
0.000     

> <gridLJ>
-4.678    

> <gridEL>
0.000     

> <totalE>
2.284     

> <LGFE>
-4.678  

> <LE>
-0.668  

> <SMILES>
OC1CCCCC1

> <atom.dprop.GFE>
-1.6 -0.52 -0.51 -0.44 -0.42 -0.58 -0.59 0 0 0 0 0 0 0 0 0 0 0 0

> <atom.prop.CLASS>
MEOO PRPC PRPC PRPC PRPC PRPC PRPC NCLA NCLA NCLA NCLA NCLA NCLA NCLA NCLA NCLA NCLA NCLA NCLA

$$$$
34
     RDKit          3D

 19 19  0  0  0  0  0  0  0  0999 V2000
   -1.0949   14.5036   -2.0770 O   0  0  0  0  0  0  0  0  0  0  0  0
   -2.4031   14.2268   -1.6359 C   0  0  0  0  0  0  0  0  0  0  0  0
   -3.4002   14.8139   -2.6410 C   0  0  0  0  0  0  0  0  0  0  0  0
   -4.8478   14.6429   -2.1503 C   0  0  0  0  0  0  0  0  0  0  0  0
   -5.0322   15.2643   -0.7581 C   0  0  0  0  0  0  0  0  0  0  0  0
   -4.0314   14.6781    0.2492 C   0  0  0  0  0  0  0  0  0  0  0  0
   -2.5891   14.8527   -0.2503 C   0  0  0  0  0  0  0  0  0  0  0  0
   -0.9731   14.1138   -2.9452 H   0  0  0  0  0  0  0  0  0  0  0  0
   -2.5502   13.1468   -1.5632 H   0  0  0  0  0  0  0  0  0  0  0  0
   -3.2855   14.3126   -3.6026 H   0  0  0  0  0  0  0  0  0  0  0  0
   -3.1889   15.8758   -2.7724 H   0  0  0  0  0  0  0  0  0  0  0  0
   -5.0914   13.5790   -2.1048 H   0  0  0  0  0  0  0  0  0  0  0  0
   -5.5283   15.1228   -2.8544 H   0  0  0  0  0  0  0  0  0  0  0  0
   -6.0498   15.0787   -0.4096 H   0  0  0  0  0  0  0  0  0  0  0  0
   -4.8843   16.3440   -0.8239 H   0  0  0  0  0  0  0  0  0  0  0  0
   -4.2401   13.6155    0.3912 H   0  0  0  0  0  0  0  0  0  0  0  0
   -4.1453   15.1834    1.2097 H   0  0  0  0  0  0  0  0  0  0  0  0
   -2.3502   15.9161   -0.3060 H   0  0  0  0  0  0  0  0  0  0  0  0
   -1.9002   14.3796    0.4500 H   0  0  0  0  0  0  0  0  0  0  0  0
  1  2  1  0
  1  8  1  0
  2  3  1  0
  2  7  1  0
  2  9  1  0
  3  4  1  0
  3 10  1  0
  3 11  1  0
  4  5  1  0
  4 12  1  0
  4 13  1  0
  5  6  1  0
  5 14  1  0
  5 15  1  0
  6  7  1  0
  6 16  1  0
  6 17  1  0
  7 18  1  0
  7 19  1  0
M  END
> <intraLJ>
-0.471    

> <intraEL>
-1.198    

> <intraDihe>
8.631     

> <interLJ>
0.000     

> <interEJ>
0.000     

> <gridLJ>
-4.535    

> <gridEL>
0.000     

> <totalE>
2.427     

> <LGFE>
-4.535  

> <LE>
-0.648  

> <SMILES>
OC1CCCCC1

> <atom.dprop.GFE>
-0.73 -0.74 -0.64 -0.48 -0.55 -0.66 -0.73 0 0 0 0 0 0 0 0 0 0 0 0

> <atom.prop.CLASS>
MEOO PRPC PRPC PRPC PRPC PRPC PRPC NCLA NCLA NCLA NCLA NCLA NCLA NCLA NCLA NCLA NCLA NCLA NCLA

$$$$
34
     RDKit          3D

 19 19  0  0  0  0  0  0  0  0999 V2000
  -20.6979    5.5850    7.3560 O   0  0  0  0  0  0  0  0  0  0  0  0
  -19.3199    5.6654    7.6337 C   0  0  0  0  0  0  0  0  0  0  0  0
  -18.5823    6.1022    6.3632 C   0  0  0  0  0  0  0  0  0  0  0  0
  -17.0591    6.0944    6.5759 C   0  0  0  0  0  0  0  0  0  0  0  0
  -16.5784    4.7151    7.0503 C   0  0  0  0  0  0  0  0  0  0  0  0
  -17.3191    4.2758    8.3225 C   0  0  0  0  0  0  0  0  0  0  0  0
  -18.8392    4.2880    8.1003 C   0  0  0  0  0  0  0  0  0  0  0  0
  -21.0043    6.4458    7.0629 H   0  0  0  0  0  0  0  0  0  0  0  0
  -19.1426    6.3940    8.4281 H   0  0  0  0  0  0  0  0  0  0  0  0
  -18.9008    7.1072    6.0847 H   0  0  0  0  0  0  0  0  0  0  0  0
  -18.8350    5.4176    5.5524 H   0  0  0  0  0  0  0  0  0  0  0  0
  -16.7942    6.8449    7.3240 H   0  0  0  0  0  0  0  0  0  0  0  0
  -16.5610    6.3495    5.6399 H   0  0  0  0  0  0  0  0  0  0  0  0
  -15.5058    4.7531    7.2489 H   0  0  0  0  0  0  0  0  0  0  0  0
  -16.7548    3.9818    6.2611 H   0  0  0  0  0  0  0  0  0  0  0  0
  -17.0667    4.9529    9.1413 H   0  0  0  0  0  0  0  0  0  0  0  0
  -17.0017    3.2686    8.5975 H   0  0  0  0  0  0  0  0  0  0  0  0
  -19.1018    3.5455    7.3447 H   0  0  0  0  0  0  0  0  0  0  0  0
  -19.3464    4.0294    9.0302 H   0  0  0  0  0  0  0  0  0  0  0  0
  1  2  1  0
  1  8  1  0
  2  3  1  0
  2  7  1  0
  2  9  1  0
  3  4  1  0
  3 10  1  0
  3 11  1  0
  4  5  1  0
  4 12  1  0
  4 13  1  0
  5  6  1  0
  5 14  1  0
  5 15  1  0
  6  7  1  0
  6 16  1  0
  6 17  1  0
  7 18  1  0
  7 19  1  0
M  END
> <intraLJ>
-0.471    

> <intraEL>
-1.198    

> <intraDihe>
8.631     

> <interLJ>
0.000     

> <interEJ>
0.000     

> <gridLJ>
-4.403    

> <gridEL>
0.000     

> <totalE>
2.559     

> <LGFE>
-4.403  

> <LE>
-0.629  

> <SMILES>
OC1CCCCC1

> <atom.dprop.GFE>
-0.99 -0.61 -0.51 -0.58 -0.58 -0.54 -0.58 0 0 0 0 0 0 0 0 0 0 0 0

> <atom.prop.CLASS>
MEOO PRPC PRPC PRPC PRPC PRPC PRPC NCLA NCLA NCLA NCLA NCLA NCLA NCLA NCLA NCLA NCLA NCLA NCLA

$$$$
34
     RDKit          3D

 19 19  0  0  0  0  0  0  0  0999 V2000
    0.9814   -2.0083   -6.6160 O   0  0  0  0  0  0  0  0  0  0  0  0
    2.0002   -2.7300   -5.9648 C   0  0  0  0  0  0  0  0  0  0  0  0
    1.8592   -4.2149   -6.3172 C   0  0  0  0  0  0  0  0  0  0  0  0
    2.8762   -5.0680   -5.5404 C   0  0  0  0  0  0  0  0  0  0  0  0
    2.7406   -4.8413   -4.0275 C   0  0  0  0  0  0  0  0  0  0  0  0
    2.8794   -3.3528   -3.6740 C   0  0  0  0  0  0  0  0  0  0  0  0
    1.8606   -2.5093   -4.4555 C   0  0  0  0  0  0  0  0  0  0  0  0
    1.0642   -2.1434   -7.5623 H   0  0  0  0  0  0  0  0  0  0  0  0
    2.9783   -2.3682   -6.2902 H   0  0  0  0  0  0  0  0  0  0  0  0
    2.0187   -4.3518   -7.3872 H   0  0  0  0  0  0  0  0  0  0  0  0
    0.8498   -4.5449   -6.0686 H   0  0  0  0  0  0  0  0  0  0  0  0
    3.8877   -4.8016   -5.8551 H   0  0  0  0  0  0  0  0  0  0  0  0
    2.7115   -6.1224   -5.7650 H   0  0  0  0  0  0  0  0  0  0  0  0
    3.5098   -5.4125   -3.5045 H   0  0  0  0  0  0  0  0  0  0  0  0
    1.7638   -5.1992   -3.6964 H   0  0  0  0  0  0  0  0  0  0  0  0
    3.8900   -3.0156   -3.9143 H   0  0  0  0  0  0  0  0  0  0  0  0
    2.7160   -3.2173   -2.6036 H   0  0  0  0  0  0  0  0  0  0  0  0
    0.8499   -2.7839   -4.1485 H   0  0  0  0  0  0  0  0  0  0  0  0
    2.0143   -1.4529   -4.2339 H   0  0  0  0  0  0  0  0  0  0  0  0
  1  2  1  0
  1  8  1  0
  2  3  1  0
  2  7  1  0
  2  9  1  0
  3  4  1  0
  3 10  1  0
  3 11  1  0
  4  5  1  0
  4 12  1  0
  4 13  1  0
  5  6  1  0
  5 14  1  0
  5 15  1  0
  6  7  1  0
  6 16  1  0
  6 17  1  0
  7 18  1  0
  7 19  1  0
M  END
> <intraLJ>
-0.471    

> <intraEL>
-1.198    

> <intraDihe>
8.631     

> <interLJ>
0.000     

> <interEJ>
0.000     

> <gridLJ>
-4.269    

> <gridEL>
0.000     

> <totalE>
2.693     

> <LGFE>
-4.269  

> <LE>
-0.610  

> <SMILES>
OC1CCCCC1

> <atom.dprop.GFE>
-1.8 -0.4 -0.47 -0.24 -0.33 -0.45 -0.58 0 0 0 0 0 0 0 0 0 0 0 0

> <atom.prop.CLASS>
MEOO PRPC PRPC PRPC PRPC PRPC PRPC NCLA NCLA NCLA NCLA NCLA NCLA NCLA NCLA NCLA NCLA NCLA NCLA

$$$$
34
     RDKit          3D

 19 19  0  0  0  0  0  0  0  0999 V2000
   17.2271   15.9575   -4.3689 O   0  0  0  0  0  0  0  0  0  0  0  0
   18.6254   15.9219   -4.2070 C   0  0  0  0  0  0  0  0  0  0  0  0
   19.2466   17.0745   -5.0037 C   0  0  0  0  0  0  0  0  0  0  0  0
   20.7828   17.0154   -4.9579 C   0  0  0  0  0  0  0  0  0  0  0  0
   21.2947   15.6564   -5.4572 C   0  0  0  0  0  0  0  0  0  0  0  0
   20.6706   14.5006   -4.6606 C   0  0  0  0  0  0  0  0  0  0  0  0
   19.1366   14.5691   -4.7114 C   0  0  0  0  0  0  0  0  0  0  0  0
   16.9015   16.8035   -4.0545 H   0  0  0  0  0  0  0  0  0  0  0  0
   18.8801   16.0290   -3.1501 H   0  0  0  0  0  0  0  0  0  0  0  0
   18.9114   18.0257   -4.5892 H   0  0  0  0  0  0  0  0  0  0  0  0
   18.9156   17.0085   -6.0409 H   0  0  0  0  0  0  0  0  0  0  0  0
   21.1207   17.1723   -3.9311 H   0  0  0  0  0  0  0  0  0  0  0  0
   21.1948   17.8093   -5.5819 H   0  0  0  0  0  0  0  0  0  0  0  0
   22.3813   15.6197   -5.3601 H   0  0  0  0  0  0  0  0  0  0  0  0
   21.0413   15.5424   -6.5130 H   0  0  0  0  0  0  0  0  0  0  0  0
   21.0020   14.5558   -3.6215 H   0  0  0  0  0  0  0  0  0  0  0  0
   21.0043   13.5496   -5.0791 H   0  0  0  0  0  0  0  0  0  0  0  0
   18.8003   14.4232   -5.7394 H   0  0  0  0  0  0  0  0  0  0  0  0
   18.7149   13.7757   -4.0937 H   0  0  0  0  0  0  0  0  0  0  0  0
  1  2  1  0
  1  8  1  0
  2  3  1  0
  2  7  1  0
  2  9  1  0
  3  4  1  0
  3 10  1  0
  3 11  1  0
  4  5  1  0
  4 12  1  0
  4 13  1  0
  5  6  1  0
  5 14  1  0
  5 15  1  0
  6  7  1  0
  6 16  1  0
  6 17  1  0
  7 18  1  0
  7 19  1  0
M  END
> <intraLJ>
-0.471    

> <intraEL>
-1.198    

> <intraDihe>
8.631     

> <interLJ>
0.000     

> <interEJ>
0.000     

> <gridLJ>
-4.042    

> <gridEL>
0.000     

> <totalE>
2.919     

> <LGFE>
-4.042  

> <LE>
-0.577  

> <SMILES>
OC1CCCCC1

> <atom.dprop.GFE>
-0.48 -0.58 -0.53 -0.54 -0.57 -0.68 -0.67 0 0 0 0 0 0 0 0 0 0 0 0

> <atom.prop.CLASS>
MEOO PRPC PRPC PRPC PRPC PRPC PRPC NCLA NCLA NCLA NCLA NCLA NCLA NCLA NCLA NCLA NCLA NCLA NCLA

$$$$
34
     RDKit          3D

 19 19  0  0  0  0  0  0  0  0999 V2000
  -23.0840    2.8447    4.8284 O   0  0  0  0  0  0  0  0  0  0  0  0
  -22.4556    3.7095    3.9120 C   0  0  0  0  0  0  0  0  0  0  0  0
  -23.0171    5.1233    4.0988 C   0  0  0  0  0  0  0  0  0  0  0  0
  -22.4505    6.0888    3.0441 C   0  0  0  0  0  0  0  0  0  0  0  0
  -22.7180    5.5686    1.6241 C   0  0  0  0  0  0  0  0  0  0  0  0
  -22.1576    4.1506    1.4370 C   0  0  0  0  0  0  0  0  0  0  0  0
  -22.7283    3.1944    2.4954 C   0  0  0  0  0  0  0  0  0  0  0  0
  -22.9165    3.1631    5.7178 H   0  0  0  0  0  0  0  0  0  0  0  0
  -21.3775    3.7180    4.0880 H   0  0  0  0  0  0  0  0  0  0  0  0
  -22.7609    5.4881    5.0939 H   0  0  0  0  0  0  0  0  0  0  0  0
  -24.1035    5.0893    4.0074 H   0  0  0  0  0  0  0  0  0  0  0  0
  -21.3734    6.1948    3.1917 H   0  0  0  0  0  0  0  0  0  0  0  0
  -22.9133    7.0689    3.1641 H   0  0  0  0  0  0  0  0  0  0  0  0
  -22.2565    6.2406    0.8984 H   0  0  0  0  0  0  0  0  0  0  0  0
  -23.7945    5.5558    1.4427 H   0  0  0  0  0  0  0  0  0  0  0  0
  -21.0690    4.1767    1.5210 H   0  0  0  0  0  0  0  0  0  0  0  0
  -22.4181    3.7859    0.4420 H   0  0  0  0  0  0  0  0  0  0  0  0
  -23.8062    3.0977    2.3541 H   0  0  0  0  0  0  0  0  0  0  0  0
  -22.2748    2.2096    2.3807 H   0  0  0  0  0  0  0  0  0  0  0  0
  1  2  1  0
  1  8  1  0
  2  3  1  0
  2  7  1  0
  2  9  1  0
  3  4  1  0
  3 10  1  0
  3 11  1  0
  4  5  1  0
  4 12  1  0
  4 13  1  0
  5  6  1  0
  5 14  1  0
  5 15  1  0
  6  7  1  0
  6 16  1  0
  6 17  1  0
  7 18  1  0
  7 19  1  0
M  END
> <intraLJ>
-0.471    

> <intraEL>
-1.198    

> <intraDihe>
8.631     

> <interLJ>
0.000     

> <interEJ>
0.000     

> <gridLJ>
-3.942    

> <gridEL>
0.000     

> <totalE>
3.020     

> <LGFE>
-3.942  

> <LE>
-0.563  

> <SMILES>
OC1CCCCC1

> <atom.dprop.GFE>
-1.1 -0.51 -0.44 -0.43 -0.4 -0.48 -0.56 0 0 0 0 0 0 0 0 0 0 0 0

> <atom.prop.CLASS>
MEOO PRPC PRPC PRPC PRPC PRPC PRPC NCLA NCLA NCLA NCLA NCLA NCLA NCLA NCLA NCLA NCLA NCLA NCLA

$$$$
34
     RDKit          3D

 19 19  0  0  0  0  0  0  0  0999 V2000
  -39.1442    7.0910   22.2808 O   0  0  0  0  0  0  0  0  0  0  0  0
  -39.1776    6.5297   20.9899 C   0  0  0  0  0  0  0  0  0  0  0  0
  -39.1483    7.6608   19.9561 C   0  0  0  0  0  0  0  0  0  0  0  0
  -39.3004    7.1107   18.5279 C   0  0  0  0  0  0  0  0  0  0  0  0
  -40.5800    6.2718   18.3964 C   0  0  0  0  0  0  0  0  0  0  0  0
  -40.6111    5.1393   19.4340 C   0  0  0  0  0  0  0  0  0  0  0  0
  -40.4573    5.6986   20.8566 C   0  0  0  0  0  0  0  0  0  0  0  0
  -38.3441    7.6132   22.3695 H   0  0  0  0  0  0  0  0  0  0  0  0
  -38.3120    5.8792   20.8448 H   0  0  0  0  0  0  0  0  0  0  0  0
  -38.2042    8.2009   20.0341 H   0  0  0  0  0  0  0  0  0  0  0  0
  -39.9656    8.3528   20.1631 H   0  0  0  0  0  0  0  0  0  0  0  0
  -38.4358    6.4889   18.2853 H   0  0  0  0  0  0  0  0  0  0  0  0
  -39.3373    7.9409   17.8216 H   0  0  0  0  0  0  0  0  0  0  0  0
  -40.6339    5.8467   17.3926 H   0  0  0  0  0  0  0  0  0  0  0  0
  -41.4491    6.9162   18.5425 H   0  0  0  0  0  0  0  0  0  0  0  0
  -39.7990    4.4381   19.2301 H   0  0  0  0  0  0  0  0  0  0  0  0
  -41.5580    4.6023   19.3567 H   0  0  0  0  0  0  0  0  0  0  0  0
  -41.3163    6.3286   21.0940 H   0  0  0  0  0  0  0  0  0  0  0  0
  -40.4240    4.8756   21.5711 H   0  0  0  0  0  0  0  0  0  0  0  0
  1  2  1  0
  1  8  1  0
  2  3  1  0
  2  7  1  0
  2  9  1  0
  3  4  1  0
  3 10  1  0
  3 11  1  0
  4  5  1  0
  4 12  1  0
  4 13  1  0
  5  6  1  0
  5 14  1  0
  5 15  1  0
  6  7  1  0
  6 16  1  0
  6 17  1  0
  7 18  1  0
  7 19  1  0
M  END
> <intraLJ>
-0.471    

> <intraEL>
-1.198    

> <intraDihe>
8.631     

> <interLJ>
0.000     

> <interEJ>
0.000     

> <gridLJ>
-3.909    

> <gridEL>
0.000     

> <totalE>
3.053     

> <LGFE>
-3.909  

> <LE>
-0.558  

> <SMILES>
OC1CCCCC1

> <atom.dprop.GFE>
-0.65 -0.6 -0.55 -0.53 -0.5 -0.56 -0.51 0 0 0 0 0 0 0 0 0 0 0 0

> <atom.prop.CLASS>
MEOO PRPC PRPC PRPC PRPC PRPC PRPC NCLA NCLA NCLA NCLA NCLA NCLA NCLA NCLA NCLA NCLA NCLA NCLA

$$$$
34
     RDKit          3D

 19 19  0  0  0  0  0  0  0  0999 V2000
  -13.8963    0.2630   21.3034 O   0  0  0  0  0  0  0  0  0  0  0  0
  -15.2100   -0.0976   21.6597 C   0  0  0  0  0  0  0  0  0  0  0  0
  -16.1460    1.0783   21.3593 C   0  0  0  0  0  0  0  0  0  0  0  0
  -17.5778    0.7833   21.8373 C   0  0  0  0  0  0  0  0  0  0  0  0
  -17.5952    0.4277   23.3312 C   0  0  0  0  0  0  0  0  0  0  0  0
  -16.6553   -0.7493   23.6333 C   0  0  0  0  0  0  0  0  0  0  0  0
  -15.2286   -0.4455   23.1512 C   0  0  0  0  0  0  0  0  0  0  0  0
  -13.8791    0.4823   20.3695 H   0  0  0  0  0  0  0  0  0  0  0  0
  -15.5245   -0.9715   21.0846 H   0  0  0  0  0  0  0  0  0  0  0  0
  -16.1580    1.2689   20.2857 H   0  0  0  0  0  0  0  0  0  0  0  0
  -15.7737    1.9680   21.8687 H   0  0  0  0  0  0  0  0  0  0  0  0
  -17.9862   -0.0518   21.2637 H   0  0  0  0  0  0  0  0  0  0  0  0
  -18.2048    1.6590   21.6659 H   0  0  0  0  0  0  0  0  0  0  0  0
  -18.6120    0.1671   23.6305 H   0  0  0  0  0  0  0  0  0  0  0  0
  -17.2796    1.2969   23.9114 H   0  0  0  0  0  0  0  0  0  0  0  0
  -17.0245   -1.6463   23.1316 H   0  0  0  0  0  0  0  0  0  0  0  0
  -16.6418   -0.9362   24.7084 H   0  0  0  0  0  0  0  0  0  0  0  0
  -14.8253    0.3960   23.7173 H   0  0  0  0  0  0  0  0  0  0  0  0
  -14.5923   -1.3142   23.3227 H   0  0  0  0  0  0  0  0  0  0  0  0
  1  2  1  0
  1  8  1  0
  2  3  1  0
  2  7  1  0
  2  9  1  0
  3  4  1  0
  3 10  1  0
  3 11  1  0
  4  5  1  0
  4 12  1  0
  4 13  1  0
  5  6  1  0
  5 14  1  0
  5 15  1  0
  6  7  1  0
  6 16  1  0
  6 17  1  0
  7 18  1  0
  7 19  1  0
M  END
> <intraLJ>
-0.471    

> <intraEL>
-1.198    

> <intraDihe>
8.631     

> <interLJ>
0.000     

> <interEJ>
0.000     

> <gridLJ>
-3.863    

> <gridEL>
0.000     

> <totalE>
3.099     

> <LGFE>
-3.863  

> <LE>
-0.552  

> <SMILES>
OC1CCCCC1

> <atom.dprop.GFE>
-0.87 -0.47 -0.58 -0.54 -0.53 -0.42 -0.46 0 0 0 0 0 0 0 0 0 0 0 0

> <atom.prop.CLASS>
MEOO PRPC PRPC PRPC PRPC PRPC PRPC NCLA NCLA NCLA NCLA NCLA NCLA NCLA NCLA NCLA NCLA NCLA NCLA

$$$$
34
     RDKit          3D

 19 19  0  0  0  0  0  0  0  0999 V2000
    7.6809   -4.9085    0.4017 O   0  0  0  0  0  0  0  0  0  0  0  0
    7.1299   -5.7563    1.3816 C   0  0  0  0  0  0  0  0  0  0  0  0
    6.4803   -4.8975    2.4723 C   0  0  0  0  0  0  0  0  0  0  0  0
    5.9630   -5.7687    3.6294 C   0  0  0  0  0  0  0  0  0  0  0  0
    7.0886   -6.6399    4.2059 C   0  0  0  0  0  0  0  0  0  0  0  0
    7.7418   -7.4991    3.1127 C   0  0  0  0  0  0  0  0  0  0  0  0
    8.2539   -6.6202    1.9615 C   0  0  0  0  0  0  0  0  0  0  0  0
    6.9806   -4.3645    0.0352 H   0  0  0  0  0  0  0  0  0  0  0  0
    6.3763   -6.4056    0.9302 H   0  0  0  0  0  0  0  0  0  0  0  0
    5.6484   -4.3358    2.0461 H   0  0  0  0  0  0  0  0  0  0  0  0
    7.2185   -4.1923    2.8562 H   0  0  0  0  0  0  0  0  0  0  0  0
    5.1592   -6.4130    3.2661 H   0  0  0  0  0  0  0  0  0  0  0  0
    5.5625   -5.1273    4.4152 H   0  0  0  0  0  0  0  0  0  0  0  0
    6.6831   -7.2887    4.9844 H   0  0  0  0  0  0  0  0  0  0  0  0
    7.8463   -5.9963    4.6569 H   0  0  0  0  0  0  0  0  0  0  0  0
    7.0104   -8.2126    2.7268 H   0  0  0  0  0  0  0  0  0  0  0  0
    8.5761   -8.0577    3.5403 H   0  0  0  0  0  0  0  0  0  0  0  0
    9.0495   -5.9690    2.3278 H   0  0  0  0  0  0  0  0  0  0  0  0
    8.6608   -7.2528    1.1720 H   0  0  0  0  0  0  0  0  0  0  0  0
  1  2  1  0
  1  8  1  0
  2  3  1  0
  2  7  1  0
  2  9  1  0
  3  4  1  0
  3 10  1  0
  3 11  1  0
  4  5  1  0
  4 12  1  0
  4 13  1  0
  5  6  1  0
  5 14  1  0
  5 15  1  0
  6  7  1  0
  6 16  1  0
  6 17  1  0
  7 18  1  0
  7 19  1  0
M  END
> <intraLJ>
-0.471    

> <intraEL>
-1.198    

> <intraDihe>
8.631     

> <interLJ>
0.000     

> <interEJ>
0.000     

> <gridLJ>
-3.780    

> <gridEL>
0.000     

> <totalE>
3.182     

> <LGFE>
-3.780  

> <LE>
-0.540  

> <SMILES>
OC1CCCCC1

> <atom.dprop.GFE>
-0.93 -0.6 -0.56 -0.47 -0.43 -0.35 -0.44 0 0 0 0 0 0 0 0 0 0 0 0

> <atom.prop.CLASS>
MEOO PRPC PRPC PRPC PRPC PRPC PRPC NCLA NCLA NCLA NCLA NCLA NCLA NCLA NCLA NCLA NCLA NCLA NCLA

$$$$
34
     RDKit          3D

 19 19  0  0  0  0  0  0  0  0999 V2000
  -25.0613    7.6301   14.2388 O   0  0  0  0  0  0  0  0  0  0  0  0
  -24.6763    8.0877   12.9641 C   0  0  0  0  0  0  0  0  0  0  0  0
  -25.3448    7.2110   11.8994 C   0  0  0  0  0  0  0  0  0  0  0  0
  -24.8676    7.5921   10.4878 C   0  0  0  0  0  0  0  0  0  0  0  0
  -23.3370    7.5173   10.3872 C   0  0  0  0  0  0  0  0  0  0  0  0
  -22.6664    8.3940   11.4557 C   0  0  0  0  0  0  0  0  0  0  0  0
  -23.1502    8.0066   12.8615 C   0  0  0  0  0  0  0  0  0  0  0  0
  -26.0171    7.6786   14.3083 H   0  0  0  0  0  0  0  0  0  0  0  0
  -24.9889    9.1260   12.8317 H   0  0  0  0  0  0  0  0  0  0  0  0
  -26.4271    7.3302   11.9569 H   0  0  0  0  0  0  0  0  0  0  0  0
  -25.0969    6.1664   12.0922 H   0  0  0  0  0  0  0  0  0  0  0  0
  -25.1943    8.6085   10.2573 H   0  0  0  0  0  0  0  0  0  0  0  0
  -25.3121    6.9132    9.7593 H   0  0  0  0  0  0  0  0  0  0  0  0
  -23.0217    7.8475    9.3958 H   0  0  0  0  0  0  0  0  0  0  0  0
  -23.0180    6.4818   10.5208 H   0  0  0  0  0  0  0  0  0  0  0  0
  -22.9047    9.4428   11.2663 H   0  0  0  0  0  0  0  0  0  0  0  0
  -21.5835    8.2706   11.3990 H   0  0  0  0  0  0  0  0  0  0  0  0
  -22.8328    6.9869   13.0867 H   0  0  0  0  0  0  0  0  0  0  0  0
  -22.7071    8.6773   13.5981 H   0  0  0  0  0  0  0  0  0  0  0  0
  1  2  1  0
  1  8  1  0
  2  3  1  0
  2  7  1  0
  2  9  1  0
  3  4  1  0
  3 10  1  0
  3 11  1  0
  4  5  1  0
  4 12  1  0
  4 13  1  0
  5  6  1  0
  5 14  1  0
  5 15  1  0
  6  7  1  0
  6 16  1  0
  6 17  1  0
  7 18  1  0
  7 19  1  0
M  END
> <intraLJ>
-0.471    

> <intraEL>
-1.198    

> <intraDihe>
8.631     

> <interLJ>
0.000     

> <interEJ>
0.000     

> <gridLJ>
-3.729    

> <gridEL>
0.000     

> <totalE>
3.233     

> <LGFE>
-3.729  

> <LE>
-0.533  

> <SMILES>
OC1CCCCC1

> <atom.dprop.GFE>
-0.63 -0.58 -0.47 -0.48 -0.47 -0.51 -0.59 0 0 0 0 0 0 0 0 0 0 0 0

> <atom.prop.CLASS>
MEOO PRPC PRPC PRPC PRPC PRPC PRPC NCLA NCLA NCLA NCLA NCLA NCLA NCLA NCLA NCLA NCLA NCLA NCLA

$$$$
34
     RDKit          3D

 19 19  0  0  0  0  0  0  0  0999 V2000
  -15.6932    7.0659  -16.8515 O   0  0  0  0  0  0  0  0  0  0  0  0
  -15.6497    7.5659  -15.5359 C   0  0  0  0  0  0  0  0  0  0  0  0
  -17.0614    7.9956  -15.1215 C   0  0  0  0  0  0  0  0  0  0  0  0
  -17.0542    8.6585  -13.7337 C   0  0  0  0  0  0  0  0  0  0  0  0
  -16.0798    9.8450  -13.6975 C   0  0  0  0  0  0  0  0  0  0  0  0
  -14.6653    9.4154  -14.1151 C   0  0  0  0  0  0  0  0  0  0  0  0
  -14.6832    8.7536  -15.5014 C   0  0  0  0  0  0  0  0  0  0  0  0
  -16.2979    6.3214  -16.8787 H   0  0  0  0  0  0  0  0  0  0  0  0
  -15.2888    6.7912  -14.8555 H   0  0  0  0  0  0  0  0  0  0  0  0
  -17.7155    7.1234  -15.0994 H   0  0  0  0  0  0  0  0  0  0  0  0
  -17.4471    8.7040  -15.8557 H   0  0  0  0  0  0  0  0  0  0  0  0
  -16.7548    7.9237  -12.9830 H   0  0  0  0  0  0  0  0  0  0  0  0
  -18.0591    9.0074  -13.4934 H   0  0  0  0  0  0  0  0  0  0  0  0
  -16.0507   10.2601  -12.6884 H   0  0  0  0  0  0  0  0  0  0  0  0
  -16.4342   10.6222  -14.3774 H   0  0  0  0  0  0  0  0  0  0  0  0
  -14.2689    8.7101  -13.3814 H   0  0  0  0  0  0  0  0  0  0  0  0
  -14.0130   10.2900  -14.1401 H   0  0  0  0  0  0  0  0  0  0  0  0
  -14.9931    9.4855  -16.2494 H   0  0  0  0  0  0  0  0  0  0  0  0
  -13.6811    8.4052  -15.7529 H   0  0  0  0  0  0  0  0  0  0  0  0
  1  2  1  0
  1  8  1  0
  2  3  1  0
  2  7  1  0
  2  9  1  0
  3  4  1  0
  3 10  1  0
  3 11  1  0
  4  5  1  0
  4 12  1  0
  4 13  1  0
  5  6  1  0
  5 14  1  0
  5 15  1  0
  6  7  1  0
  6 16  1  0
  6 17  1  0
  7 18  1  0
  7 19  1  0
M  END
> <intraLJ>
-0.471    

> <intraEL>
-1.198    

> <intraDihe>
8.631     

> <interLJ>
0.000     

> <interEJ>
0.000     

> <gridLJ>
-3.709    

> <gridEL>
0.000     

> <totalE>
3.253     

> <LGFE>
-3.709  

> <LE>
-0.530  

> <SMILES>
OC1CCCCC1

> <atom.dprop.GFE>
-0.84 -0.48 -0.46 -0.45 -0.48 -0.48 -0.51 0 0 0 0 0 0 0 0 0 0 0 0

> <atom.prop.CLASS>
MEOO PRPC PRPC PRPC PRPC PRPC PRPC NCLA NCLA NCLA NCLA NCLA NCLA NCLA NCLA NCLA NCLA NCLA NCLA

$$$$
34
     RDKit          3D

 19 19  0  0  0  0  0  0  0  0999 V2000
  -21.1763    2.6237   23.1631 O   0  0  0  0  0  0  0  0  0  0  0  0
  -20.0209    1.8281   23.0428 C   0  0  0  0  0  0  0  0  0  0  0  0
  -20.0383    1.1313   21.6778 C   0  0  0  0  0  0  0  0  0  0  0  0
  -18.8567    0.1567   21.5377 C   0  0  0  0  0  0  0  0  0  0  0  0
  -18.8506   -0.8664   22.6829 C   0  0  0  0  0  0  0  0  0  0  0  0
  -18.8356   -0.1686   24.0514 C   0  0  0  0  0  0  0  0  0  0  0  0
  -20.0184    0.8032   24.1811 C   0  0  0  0  0  0  0  0  0  0  0  0
  -21.1829    3.2677   22.4519 H   0  0  0  0  0  0  0  0  0  0  0  0
  -19.1288    2.4535   23.1227 H   0  0  0  0  0  0  0  0  0  0  0  0
  -19.9823    1.8794   20.8865 H   0  0  0  0  0  0  0  0  0  0  0  0
  -20.9732    0.5794   21.5723 H   0  0  0  0  0  0  0  0  0  0  0  0
  -17.9202    0.7187   21.5519 H   0  0  0  0  0  0  0  0  0  0  0  0
  -18.9301   -0.3673   20.5841 H   0  0  0  0  0  0  0  0  0  0  0  0
  -17.9720   -1.5076   22.5922 H   0  0  0  0  0  0  0  0  0  0  0  0
  -19.7412   -1.4935   22.6097 H   0  0  0  0  0  0  0  0  0  0  0  0
  -17.8995    0.3818   24.1677 H   0  0  0  0  0  0  0  0  0  0  0  0
  -18.8953   -0.9186   24.8419 H   0  0  0  0  0  0  0  0  0  0  0  0
  -20.9541    0.2419   24.1557 H   0  0  0  0  0  0  0  0  0  0  0  0
  -19.9564    1.3291   25.1342 H   0  0  0  0  0  0  0  0  0  0  0  0
  1  2  1  0
  1  8  1  0
  2  3  1  0
  2  7  1  0
  2  9  1  0
  3  4  1  0
  3 10  1  0
  3 11  1  0
  4  5  1  0
  4 12  1  0
  4 13  1  0
  5  6  1  0
  5 14  1  0
  5 15  1  0
  6  7  1  0
  6 16  1  0
  6 17  1  0
  7 18  1  0
  7 19  1  0
M  END
> <intraLJ>
-0.471    

> <intraEL>
-1.198    

> <intraDihe>
8.631     

> <interLJ>
0.000     

> <interEJ>
0.000     

> <gridLJ>
-3.636    

> <gridEL>
0.000     

> <totalE>
3.326     

> <LGFE>
-3.636  

> <LE>
-0.519  

> <SMILES>
OC1CCCCC1

> <atom.dprop.GFE>
-1.4 -0.27 -0.38 -0.47 -0.48 -0.38 -0.23 0 0 0 0 0 0 0 0 0 0 0 0

> <atom.prop.CLASS>
MEOO PRPC PRPC PRPC PRPC PRPC PRPC NCLA NCLA NCLA NCLA NCLA NCLA NCLA NCLA NCLA NCLA NCLA NCLA

$$$$
34
     RDKit          3D

 19 19  0  0  0  0  0  0  0  0999 V2000
   18.9983    6.3463   -7.7809 O   0  0  0  0  0  0  0  0  0  0  0  0
   18.3210    6.8047   -6.6347 C   0  0  0  0  0  0  0  0  0  0  0  0
   19.1457    6.4447   -5.3940 C   0  0  0  0  0  0  0  0  0  0  0  0
   18.3974    6.8185   -4.1033 C   0  0  0  0  0  0  0  0  0  0  0  0
   17.0125    6.1561   -4.0605 C   0  0  0  0  0  0  0  0  0  0  0  0
   16.1864    6.5146   -5.3051 C   0  0  0  0  0  0  0  0  0  0  0  0
   16.9425    6.1386   -6.5885 C   0  0  0  0  0  0  0  0  0  0  0  0
   19.8631    6.7605   -7.8145 H   0  0  0  0  0  0  0  0  0  0  0  0
   18.1931    7.8883   -6.6870 H   0  0  0  0  0  0  0  0  0  0  0  0
   20.0979    6.9752   -5.4234 H   0  0  0  0  0  0  0  0  0  0  0  0
   19.3424    5.3719   -5.3969 H   0  0  0  0  0  0  0  0  0  0  0  0
   18.2793    7.9033   -4.0545 H   0  0  0  0  0  0  0  0  0  0  0  0
   18.9803    6.4957   -3.2399 H   0  0  0  0  0  0  0  0  0  0  0  0
   16.4812    6.4831   -3.1649 H   0  0  0  0  0  0  0  0  0  0  0  0
   17.1337    5.0723   -4.0103 H   0  0  0  0  0  0  0  0  0  0  0  0
   15.9797    7.5870   -5.3067 H   0  0  0  0  0  0  0  0  0  0  0  0
   15.2354    5.9801   -5.2757 H   0  0  0  0  0  0  0  0  0  0  0  0
   17.0698    5.0555   -6.6311 H   0  0  0  0  0  0  0  0  0  0  0  0
   16.3651    6.4534   -7.4582 H   0  0  0  0  0  0  0  0  0  0  0  0
  1  2  1  0
  1  8  1  0
  2  3  1  0
  2  7  1  0
  2  9  1  0
  3  4  1  0
  3 10  1  0
  3 11  1  0
  4  5  1  0
  4 12  1  0
  4 13  1  0
  5  6  1  0
  5 14  1  0
  5 15  1  0
  6  7  1  0
  6 16  1  0
  6 17  1  0
  7 18  1  0
  7 19  1  0
M  END
> <intraLJ>
-0.471    

> <intraEL>
-1.198    

> <intraDihe>
8.631     

> <interLJ>
0.000     

> <interEJ>
0.000     

> <gridLJ>
-3.587    

> <gridEL>
0.000     

> <totalE>
3.375     

> <LGFE>
-3.587  

> <LE>
-0.512  

> <SMILES>
OC1CCCCC1

> <atom.dprop.GFE>
-0.53 -0.52 -0.46 -0.51 -0.53 -0.47 -0.56 0 0 0 0 0 0 0 0 0 0 0 0

> <atom.prop.CLASS>
MEOO PRPC PRPC PRPC PRPC PRPC PRPC NCLA NCLA NCLA NCLA NCLA NCLA NCLA NCLA NCLA NCLA NCLA NCLA

$$$$
34
     RDKit          3D

 19 19  0  0  0  0  0  0  0  0999 V2000
  -25.3480    6.9790   22.1318 O   0  0  0  0  0  0  0  0  0  0  0  0
  -26.0860    5.7985   21.9210 C   0  0  0  0  0  0  0  0  0  0  0  0
  -25.1120    4.6450   21.6567 C   0  0  0  0  0  0  0  0  0  0  0  0
  -25.8665    3.3520   21.3040 C   0  0  0  0  0  0  0  0  0  0  0  0
  -26.8033    3.5725   20.1073 C   0  0  0  0  0  0  0  0  0  0  0  0
  -27.7782    4.7302   20.3707 C   0  0  0  0  0  0  0  0  0  0  0  0
  -27.0154    6.0162   20.7231 C   0  0  0  0  0  0  0  0  0  0  0  0
  -24.7636    6.8478   22.8814 H   0  0  0  0  0  0  0  0  0  0  0  0
  -26.6879    5.5736   22.8045 H   0  0  0  0  0  0  0  0  0  0  0  0
  -24.5013    4.4738   22.5437 H   0  0  0  0  0  0  0  0  0  0  0  0
  -24.4569    4.9158   20.8277 H   0  0  0  0  0  0  0  0  0  0  0  0
  -26.4539    3.0289   22.1663 H   0  0  0  0  0  0  0  0  0  0  0  0
  -25.1483    2.5677   21.0622 H   0  0  0  0  0  0  0  0  0  0  0  0
  -27.3679    2.6584   19.9149 H   0  0  0  0  0  0  0  0  0  0  0  0
  -26.2075    3.7998   19.2212 H   0  0  0  0  0  0  0  0  0  0  0  0
  -28.4423    4.4645   21.1960 H   0  0  0  0  0  0  0  0  0  0  0  0
  -28.3859    4.9024   19.4807 H   0  0  0  0  0  0  0  0  0  0  0  0
  -26.4201    6.3324   19.8647 H   0  0  0  0  0  0  0  0  0  0  0  0
  -27.7254    6.8084   20.9621 H   0  0  0  0  0  0  0  0  0  0  0  0
  1  2  1  0
  1  8  1  0
  2  3  1  0
  2  7  1  0
  2  9  1  0
  3  4  1  0
  3 10  1  0
  3 11  1  0
  4  5  1  0
  4 12  1  0
  4 13  1  0
  5  6  1  0
  5 14  1  0
  5 15  1  0
  6  7  1  0
  6 16  1  0
  6 17  1  0
  7 18  1  0
  7 19  1  0
M  END
> <intraLJ>
-0.471    

> <intraEL>
-1.198    

> <intraDihe>
8.631     

> <interLJ>
0.000     

> <interEJ>
0.000     

> <gridLJ>
-3.548    

> <gridEL>
0.000     

> <totalE>
3.414     

> <LGFE>
-3.548  

> <LE>
-0.507  

> <SMILES>
OC1CCCCC1

> <atom.dprop.GFE>
-2 -0.28 -0.29 -0.3 0.038 -0.28 -0.39 0 0 0 0 0 0 0 0 0 0 0 0

> <atom.prop.CLASS>
MEOO PRPC PRPC PRPC PRPC PRPC PRPC NCLA NCLA NCLA NCLA NCLA NCLA NCLA NCLA NCLA NCLA NCLA NCLA

$$$$
34
     RDKit          3D

 19 19  0  0  0  0  0  0  0  0999 V2000
  -16.8245    6.8652   -1.2704 O   0  0  0  0  0  0  0  0  0  0  0  0
  -17.9917    6.7929   -2.0547 C   0  0  0  0  0  0  0  0  0  0  0  0
  -17.5929    6.5825   -3.5195 C   0  0  0  0  0  0  0  0  0  0  0  0
  -18.8252    6.6125   -4.4394 C   0  0  0  0  0  0  0  0  0  0  0  0
  -19.6116    7.9193   -4.2606 C   0  0  0  0  0  0  0  0  0  0  0  0
  -20.0096    8.1320   -2.7922 C   0  0  0  0  0  0  0  0  0  0  0  0
  -18.7726    8.0993   -1.8817 C   0  0  0  0  0  0  0  0  0  0  0  0
  -16.3312    6.0490   -1.3754 H   0  0  0  0  0  0  0  0  0  0  0  0
  -18.6126    5.9583   -1.7212 H   0  0  0  0  0  0  0  0  0  0  0  0
  -17.0894    5.6211   -3.6251 H   0  0  0  0  0  0  0  0  0  0  0  0
  -16.9034    7.3734   -3.8173 H   0  0  0  0  0  0  0  0  0  0  0  0
  -19.4743    5.7664   -4.2028 H   0  0  0  0  0  0  0  0  0  0  0  0
  -18.5046    6.5216   -5.4778 H   0  0  0  0  0  0  0  0  0  0  0  0
  -20.5099    7.8901   -4.8801 H   0  0  0  0  0  0  0  0  0  0  0  0
  -18.9953    8.7579   -4.5904 H   0  0  0  0  0  0  0  0  0  0  0  0
  -20.7052    7.3472   -2.4875 H   0  0  0  0  0  0  0  0  0  0  0  0
  -20.5101    9.0961   -2.6879 H   0  0  0  0  0  0  0  0  0  0  0  0
  -18.1192    8.9386   -2.1261 H   0  0  0  0  0  0  0  0  0  0  0  0
  -19.0826    8.1942   -0.8406 H   0  0  0  0  0  0  0  0  0  0  0  0
  1  2  1  0
  1  8  1  0
  2  3  1  0
  2  7  1  0
  2  9  1  0
  3  4  1  0
  3 10  1  0
  3 11  1  0
  4  5  1  0
  4 12  1  0
  4 13  1  0
  5  6  1  0
  5 14  1  0
  5 15  1  0
  6  7  1  0
  6 16  1  0
  6 17  1  0
  7 18  1  0
  7 19  1  0
M  END
> <intraLJ>
-0.471    

> <intraEL>
-1.198    

> <intraDihe>
8.631     

> <interLJ>
0.000     

> <interEJ>
0.000     

> <gridLJ>
-3.429    

> <gridEL>
0.000     

> <totalE>
3.533     

> <LGFE>
-3.429  

> <LE>
-0.490  

> <SMILES>
OC1CCCCC1

> <atom.dprop.GFE>
-1.4 -0.49 -0.58 -0.31 -0.12 -0.11 -0.44 0 0 0 0 0 0 0 0 0 0 0 0

> <atom.prop.CLASS>
MEOO PRPC PRPC PRPC PRPC PRPC PRPC NCLA NCLA NCLA NCLA NCLA NCLA NCLA NCLA NCLA NCLA NCLA NCLA

$$$$
34
     RDKit          3D

 19 19  0  0  0  0  0  0  0  0999 V2000
   -1.5503    1.8692    8.3744 O   0  0  0  0  0  0  0  0  0  0  0  0
   -2.1244    2.8161    9.2442 C   0  0  0  0  0  0  0  0  0  0  0  0
   -2.5113    4.0605    8.4375 C   0  0  0  0  0  0  0  0  0  0  0  0
   -3.0374    5.1757    9.3568 C   0  0  0  0  0  0  0  0  0  0  0  0
   -2.0113    5.5179   10.4469 C   0  0  0  0  0  0  0  0  0  0  0  0
   -1.6213    4.2705   11.2543 C   0  0  0  0  0  0  0  0  0  0  0  0
   -1.0984    3.1625   10.3275 C   0  0  0  0  0  0  0  0  0  0  0  0
   -2.1892    1.6488    7.6933 H   0  0  0  0  0  0  0  0  0  0  0  0
   -3.0149    2.3951    9.7166 H   0  0  0  0  0  0  0  0  0  0  0  0
   -3.2826    3.7990    7.7125 H   0  0  0  0  0  0  0  0  0  0  0  0
   -1.6340    4.4225    7.9000 H   0  0  0  0  0  0  0  0  0  0  0  0
   -3.9672    4.8484    9.8274 H   0  0  0  0  0  0  0  0  0  0  0  0
   -3.2462    6.0664    8.7632 H   0  0  0  0  0  0  0  0  0  0  0  0
   -2.4318    6.2688   11.1184 H   0  0  0  0  0  0  0  0  0  0  0  0
   -1.1178    5.9374    9.9807 H   0  0  0  0  0  0  0  0  0  0  0  0
   -2.4933    3.9049   11.8008 H   0  0  0  0  0  0  0  0  0  0  0  0
   -0.8468    4.5334   11.9767 H   0  0  0  0  0  0  0  0  0  0  0  0
   -0.1753    3.4946    9.8492 H   0  0  0  0  0  0  0  0  0  0  0  0
   -0.8822    2.2683   10.9129 H   0  0  0  0  0  0  0  0  0  0  0  0
  1  2  1  0
  1  8  1  0
  2  3  1  0
  2  7  1  0
  2  9  1  0
  3  4  1  0
  3 10  1  0
  3 11  1  0
  4  5  1  0
  4 12  1  0
  4 13  1  0
  5  6  1  0
  5 14  1  0
  5 15  1  0
  6  7  1  0
  6 16  1  0
  6 17  1  0
  7 18  1  0
  7 19  1  0
M  END
> <intraLJ>
-0.471    

> <intraEL>
-1.198    

> <intraDihe>
8.631     

> <interLJ>
0.000     

> <interEJ>
0.000     

> <gridLJ>
-3.424    

> <gridEL>
0.000     

> <totalE>
3.538     

> <LGFE>
-3.424  

> <LE>
-0.489  

> <SMILES>
OC1CCCCC1

> <atom.dprop.GFE>
-0.95 -0.53 -0.51 -0.37 -0.35 -0.34 -0.38 0 0 0 0 0 0 0 0 0 0 0 0

> <atom.prop.CLASS>
MEOO PRPC PRPC PRPC PRPC PRPC PRPC NCLA NCLA NCLA NCLA NCLA NCLA NCLA NCLA NCLA NCLA NCLA NCLA

$$$$
34
     RDKit          3D

 19 19  0  0  0  0  0  0  0  0999 V2000
  -30.1064   -9.4973   23.3334 O   0  0  0  0  0  0  0  0  0  0  0  0
  -29.8774  -10.1230   24.5738 C   0  0  0  0  0  0  0  0  0  0  0  0
  -29.9034   -9.0603   25.6779 C   0  0  0  0  0  0  0  0  0  0  0  0
  -29.5430   -9.6702   27.0431 C   0  0  0  0  0  0  0  0  0  0  0  0
  -28.1812  -10.3775   26.9857 C   0  0  0  0  0  0  0  0  0  0  0  0
  -28.1536  -11.4412   25.8776 C   0  0  0  0  0  0  0  0  0  0  0  0
  -28.5159  -10.8227   24.5188 C   0  0  0  0  0  0  0  0  0  0  0  0
  -30.9584   -9.0570   23.3626 H   0  0  0  0  0  0  0  0  0  0  0  0
  -30.6544  -10.8670   24.7640 H   0  0  0  0  0  0  0  0  0  0  0  0
  -30.8985   -8.6178   25.7338 H   0  0  0  0  0  0  0  0  0  0  0  0
  -29.1850   -8.2766   25.4340 H   0  0  0  0  0  0  0  0  0  0  0  0
  -30.3113  -10.3910   27.3317 H   0  0  0  0  0  0  0  0  0  0  0  0
  -29.5102   -8.8812   27.7952 H   0  0  0  0  0  0  0  0  0  0  0  0
  -27.9766  -10.8499   27.9482 H   0  0  0  0  0  0  0  0  0  0  0  0
  -27.4003   -9.6392   26.7937 H   0  0  0  0  0  0  0  0  0  0  0  0
  -28.8664  -12.2332   26.1173 H   0  0  0  0  0  0  0  0  0  0  0  0
  -27.1562  -11.8803   25.8208 H   0  0  0  0  0  0  0  0  0  0  0  0
  -27.7536  -10.0945   24.2362 H   0  0  0  0  0  0  0  0  0  0  0  0
  -28.5469  -11.6036   23.7585 H   0  0  0  0  0  0  0  0  0  0  0  0
  1  2  1  0
  1  8  1  0
  2  3  1  0
  2  7  1  0
  2  9  1  0
  3  4  1  0
  3 10  1  0
  3 11  1  0
  4  5  1  0
  4 12  1  0
  4 13  1  0
  5  6  1  0
  5 14  1  0
  5 15  1  0
  6  7  1  0
  6 16  1  0
  6 17  1  0
  7 18  1  0
  7 19  1  0
M  END
> <intraLJ>
-0.471    

> <intraEL>
-1.198    

> <intraDihe>
8.631     

> <interLJ>
0.000     

> <interEJ>
0.000     

> <gridLJ>
-3.351    

> <gridEL>
0.000     

> <totalE>
3.610     

> <LGFE>
-3.351  

> <LE>
-0.479  

> <SMILES>
OC1CCCCC1

> <atom.dprop.GFE>
-0.72 -0.52 -0.45 -0.38 -0.41 -0.39 -0.48 0 0 0 0 0 0 0 0 0 0 0 0

> <atom.prop.CLASS>
MEOO PRPC PRPC PRPC PRPC PRPC PRPC NCLA NCLA NCLA NCLA NCLA NCLA NCLA NCLA NCLA NCLA NCLA NCLA

$$$$
34
     RDKit          3D

 19 19  0  0  0  0  0  0  0  0999 V2000
   -7.0738   -7.7186    2.6399 O   0  0  0  0  0  0  0  0  0  0  0  0
   -7.6496   -8.9320    2.2169 C   0  0  0  0  0  0  0  0  0  0  0  0
   -8.5156   -9.4920    3.3507 C   0  0  0  0  0  0  0  0  0  0  0  0
   -9.0776  -10.8767    2.9869 C   0  0  0  0  0  0  0  0  0  0  0  0
   -7.9466  -11.8489    2.6204 C   0  0  0  0  0  0  0  0  0  0  0  0
   -7.0768  -11.2870    1.4856 C   0  0  0  0  0  0  0  0  0  0  0  0
   -6.5214   -9.9038    1.8579 C   0  0  0  0  0  0  0  0  0  0  0  0
   -7.7767   -7.1060    2.8663 H   0  0  0  0  0  0  0  0  0  0  0  0
   -8.2693   -8.7614    1.3335 H   0  0  0  0  0  0  0  0  0  0  0  0
   -9.3427   -8.8095    3.5481 H   0  0  0  0  0  0  0  0  0  0  0  0
   -7.9086   -9.5767    4.2529 H   0  0  0  0  0  0  0  0  0  0  0  0
   -9.7582  -10.7797    2.1381 H   0  0  0  0  0  0  0  0  0  0  0  0
   -9.6372  -11.2748    3.8341 H   0  0  0  0  0  0  0  0  0  0  0  0
   -8.3749  -12.8041    2.3112 H   0  0  0  0  0  0  0  0  0  0  0  0
   -7.3223  -12.0218    3.4990 H   0  0  0  0  0  0  0  0  0  0  0  0
   -7.6758  -11.2046    0.5761 H   0  0  0  0  0  0  0  0  0  0  0  0
   -6.2477  -11.9696    1.2919 H   0  0  0  0  0  0  0  0  0  0  0  0
   -5.8501  -10.0000    2.7130 H   0  0  0  0  0  0  0  0  0  0  0  0
   -5.9559   -9.4990    1.0181 H   0  0  0  0  0  0  0  0  0  0  0  0
  1  2  1  0
  1  8  1  0
  2  3  1  0
  2  7  1  0
  2  9  1  0
  3  4  1  0
  3 10  1  0
  3 11  1  0
  4  5  1  0
  4 12  1  0
  4 13  1  0
  5  6  1  0
  5 14  1  0
  5 15  1  0
  6  7  1  0
  6 16  1  0
  6 17  1  0
  7 18  1  0
  7 19  1  0
M  END
> <intraLJ>
-0.471    

> <intraEL>
-1.198    

> <intraDihe>
8.631     

> <interLJ>
0.000     

> <interEJ>
0.000     

> <gridLJ>
-3.271    

> <gridEL>
0.000     

> <totalE>
3.690     

> <LGFE>
-3.271  

> <LE>
-0.467  

> <SMILES>
OC1CCCCC1

> <atom.dprop.GFE>
-1.1 -0.31 -0.31 -0.36 -0.43 -0.41 -0.37 0 0 0 0 0 0 0 0 0 0 0 0

> <atom.prop.CLASS>
MEOO PRPC PRPC PRPC PRPC PRPC PRPC NCLA NCLA NCLA NCLA NCLA NCLA NCLA NCLA NCLA NCLA NCLA NCLA

$$$$
34
     RDKit          3D

 19 19  0  0  0  0  0  0  0  0999 V2000
   18.7456   -1.1155  -36.6414 O   0  0  0  0  0  0  0  0  0  0  0  0
   18.2455   -1.8722  -35.5644 C   0  0  0  0  0  0  0  0  0  0  0  0
   17.7906   -0.9167  -34.4556 C   0  0  0  0  0  0  0  0  0  0  0  0
   17.3422   -1.6919  -33.2052 C   0  0  0  0  0  0  0  0  0  0  0  0
   18.4559   -2.6263  -32.7102 C   0  0  0  0  0  0  0  0  0  0  0  0
   18.9140   -3.5826  -33.8218 C   0  0  0  0  0  0  0  0  0  0  0  0
   19.3586   -2.7991  -35.0663 C   0  0  0  0  0  0  0  0  0  0  0  0
   18.0520   -0.5325  -36.9572 H   0  0  0  0  0  0  0  0  0  0  0  0
   17.3985   -2.4768  -35.8964 H   0  0  0  0  0  0  0  0  0  0  0  0
   16.9614   -0.3081  -34.8173 H   0  0  0  0  0  0  0  0  0  0  0  0
   18.6192   -0.2583  -34.1918 H   0  0  0  0  0  0  0  0  0  0  0  0
   16.4557   -2.2835  -33.4445 H   0  0  0  0  0  0  0  0  0  0  0  0
   17.0832   -0.9865  -32.4149 H   0  0  0  0  0  0  0  0  0  0  0  0
   18.0925   -3.2054  -31.8594 H   0  0  0  0  0  0  0  0  0  0  0  0
   19.3066   -2.0278  -32.3787 H   0  0  0  0  0  0  0  0  0  0  0  0
   18.0915   -4.2500  -34.0879 H   0  0  0  0  0  0  0  0  0  0  0  0
   19.7462   -4.1883  -33.4592 H   0  0  0  0  0  0  0  0  0  0  0  0
   20.2378   -2.1998  -34.8234 H   0  0  0  0  0  0  0  0  0  0  0  0
   19.6243   -3.4964  -35.8613 H   0  0  0  0  0  0  0  0  0  0  0  0
  1  2  1  0
  1  8  1  0
  2  3  1  0
  2  7  1  0
  2  9  1  0
  3  4  1  0
  3 10  1  0
  3 11  1  0
  4  5  1  0
  4 12  1  0
  4 13  1  0
  5  6  1  0
  5 14  1  0
  5 15  1  0
  6  7  1  0
  6 16  1  0
  6 17  1  0
  7 18  1  0
  7 19  1  0
M  END
> <intraLJ>
-0.471    

> <intraEL>
-1.198    

> <intraDihe>
8.631     

> <interLJ>
0.000     

> <interEJ>
0.000     

> <gridLJ>
-3.301    

> <gridEL>
0.000     

> <totalE>
3.661     

> <LGFE>
-3.301  

> <LE>
-0.472  

> <SMILES>
OC1CCCCC1

> <atom.dprop.GFE>
-1.1 -0.38 -0.42 -0.42 -0.26 -0.36 -0.33 0 0 0 0 0 0 0 0 0 0 0 0

> <atom.prop.CLASS>
MEOO PRPC PRPC PRPC PRPC PRPC PRPC NCLA NCLA NCLA NCLA NCLA NCLA NCLA NCLA NCLA NCLA NCLA NCLA

$$$$
34
     RDKit          3D

 19 19  0  0  0  0  0  0  0  0999 V2000
  -19.1465   -5.8601   24.8467 O   0  0  0  0  0  0  0  0  0  0  0  0
  -19.5507   -6.9696   25.6137 C   0  0  0  0  0  0  0  0  0  0  0  0
  -21.0711   -7.1250   25.4986 C   0  0  0  0  0  0  0  0  0  0  0  0
  -21.5838   -8.2525   26.4103 C   0  0  0  0  0  0  0  0  0  0  0  0
  -21.1588   -8.0163   27.8670 C   0  0  0  0  0  0  0  0  0  0  0  0
  -19.6352   -7.8580   27.9827 C   0  0  0  0  0  0  0  0  0  0  0  0
  -19.1329   -6.7307   27.0678 C   0  0  0  0  0  0  0  0  0  0  0  0
  -19.4063   -6.0046   23.9344 H   0  0  0  0  0  0  0  0  0  0  0  0
  -19.0618   -7.8743   25.2451 H   0  0  0  0  0  0  0  0  0  0  0  0
  -21.3368   -7.3500   24.4652 H   0  0  0  0  0  0  0  0  0  0  0  0
  -21.5471   -6.1866   25.7860 H   0  0  0  0  0  0  0  0  0  0  0  0
  -21.1792   -9.2075   26.0676 H   0  0  0  0  0  0  0  0  0  0  0  0
  -22.6719   -8.2984   26.3532 H   0  0  0  0  0  0  0  0  0  0  0  0
  -21.4846   -8.8577   28.4813 H   0  0  0  0  0  0  0  0  0  0  0  0
  -21.6428   -7.1119   28.2407 H   0  0  0  0  0  0  0  0  0  0  0  0
  -19.1507   -8.7958   27.7023 H   0  0  0  0  0  0  0  0  0  0  0  0
  -19.3716   -7.6293   29.0167 H   0  0  0  0  0  0  0  0  0  0  0  0
  -19.5464   -5.7784   27.4042 H   0  0  0  0  0  0  0  0  0  0  0  0
  -18.0453   -6.6738   27.1215 H   0  0  0  0  0  0  0  0  0  0  0  0
  1  2  1  0
  1  8  1  0
  2  3  1  0
  2  7  1  0
  2  9  1  0
  3  4  1  0
  3 10  1  0
  3 11  1  0
  4  5  1  0
  4 12  1  0
  4 13  1  0
  5  6  1  0
  5 14  1  0
  5 15  1  0
  6  7  1  0
  6 16  1  0
  6 17  1  0
  7 18  1  0
  7 19  1  0
M  END
> <intraLJ>
-0.471    

> <intraEL>
-1.198    

> <intraDihe>
8.631     

> <interLJ>
0.000     

> <interEJ>
0.000     

> <gridLJ>
-3.305    

> <gridEL>
0.000     

> <totalE>
3.656     

> <LGFE>
-3.305  

> <LE>
-0.472  

> <SMILES>
OC1CCCCC1

> <atom.dprop.GFE>
-1.1 -0.33 -0.34 -0.42 -0.42 -0.33 -0.32 0 0 0 0 0 0 0 0 0 0 0 0

> <atom.prop.CLASS>
MEOO PRPC PRPC PRPC PRPC PRPC PRPC NCLA NCLA NCLA NCLA NCLA NCLA NCLA NCLA NCLA NCLA NCLA NCLA

$$$$
34
     RDKit          3D

 19 19  0  0  0  0  0  0  0  0999 V2000
  -25.2096   -4.8112    4.0228 O   0  0  0  0  0  0  0  0  0  0  0  0
  -26.5495   -5.1310    4.3141 C   0  0  0  0  0  0  0  0  0  0  0  0
  -27.0122   -6.2417    3.3647 C   0  0  0  0  0  0  0  0  0  0  0  0
  -28.5061   -6.5511    3.5598 C   0  0  0  0  0  0  0  0  0  0  0  0
  -29.3561   -5.2837    3.3873 C   0  0  0  0  0  0  0  0  0  0  0  0
  -28.8912   -4.1693    4.3370 C   0  0  0  0  0  0  0  0  0  0  0  0
  -27.3982   -3.8685    4.1354 C   0  0  0  0  0  0  0  0  0  0  0  0
  -24.6733   -5.5992    4.1330 H   0  0  0  0  0  0  0  0  0  0  0  0
  -26.6334   -5.4750    5.3476 H   0  0  0  0  0  0  0  0  0  0  0  0
  -26.4311   -7.1453    3.5509 H   0  0  0  0  0  0  0  0  0  0  0  0
  -26.8432   -5.9227    2.3354 H   0  0  0  0  0  0  0  0  0  0  0  0
  -28.6640   -6.9570    4.5615 H   0  0  0  0  0  0  0  0  0  0  0  0
  -28.8195   -7.2995    2.8310 H   0  0  0  0  0  0  0  0  0  0  0  0
  -30.4030   -5.5187    3.5875 H   0  0  0  0  0  0  0  0  0  0  0  0
  -29.2748   -4.9337    2.3565 H   0  0  0  0  0  0  0  0  0  0  0  0
  -29.0627   -4.4784    5.3704 H   0  0  0  0  0  0  0  0  0  0  0  0
  -29.4714   -3.2649    4.1467 H   0  0  0  0  0  0  0  0  0  0  0  0
  -27.2397   -3.4734    3.1304 H   0  0  0  0  0  0  0  0  0  0  0  0
  -27.0761   -3.1173    4.8570 H   0  0  0  0  0  0  0  0  0  0  0  0
  1  2  1  0
  1  8  1  0
  2  3  1  0
  2  7  1  0
  2  9  1  0
  3  4  1  0
  3 10  1  0
  3 11  1  0
  4  5  1  0
  4 12  1  0
  4 13  1  0
  5  6  1  0
  5 14  1  0
  5 15  1  0
  6  7  1  0
  6 16  1  0
  6 17  1  0
  7 18  1  0
  7 19  1  0
M  END
> <intraLJ>
-0.471    

> <intraEL>
-1.198    

> <intraDihe>
8.631     

> <interLJ>
0.000     

> <interEJ>
0.000     

> <gridLJ>
-3.228    

> <gridEL>
0.000     

> <totalE>
3.734     

> <LGFE>
-3.228  

> <LE>
-0.461  

> <SMILES>
OC1CCCCC1

> <atom.dprop.GFE>
-1.3 -0.43 -0.38 -0.3 -0.27 -0.31 -0.24 0 0 0 0 0 0 0 0 0 0 0 0

> <atom.prop.CLASS>
MEOO PRPC PRPC PRPC PRPC PRPC PRPC NCLA NCLA NCLA NCLA NCLA NCLA NCLA NCLA NCLA NCLA NCLA NCLA

$$$$
34
     RDKit          3D

 19 19  0  0  0  0  0  0  0  0999 V2000
  -21.3670    5.9572  -11.5249 O   0  0  0  0  0  0  0  0  0  0  0  0
  -21.9070    5.3873  -10.3560 C   0  0  0  0  0  0  0  0  0  0  0  0
  -23.3399    5.8987  -10.1709 C   0  0  0  0  0  0  0  0  0  0  0  0
  -23.9399    5.3997   -8.8456 C   0  0  0  0  0  0  0  0  0  0  0  0
  -23.0514    5.7960   -7.6573 C   0  0  0  0  0  0  0  0  0  0  0  0
  -21.6144    5.2858   -7.8434 C   0  0  0  0  0  0  0  0  0  0  0  0
  -21.0246    5.7884   -9.1699 C   0  0  0  0  0  0  0  0  0  0  0  0
  -21.9165    5.7091  -12.2713 H   0  0  0  0  0  0  0  0  0  0  0  0
  -21.9158    4.2984  -10.4430 H   0  0  0  0  0  0  0  0  0  0  0  0
  -23.9597    5.5525  -10.9985 H   0  0  0  0  0  0  0  0  0  0  0  0
  -23.3310    6.9894  -10.1727 H   0  0  0  0  0  0  0  0  0  0  0  0
  -24.0340    4.3119   -8.8776 H   0  0  0  0  0  0  0  0  0  0  0  0
  -24.9339    5.8283   -8.7135 H   0  0  0  0  0  0  0  0  0  0  0  0
  -23.4683    5.3810   -6.7379 H   0  0  0  0  0  0  0  0  0  0  0  0
  -23.0369    6.8838   -7.5663 H   0  0  0  0  0  0  0  0  0  0  0  0
  -21.6135    4.1936   -7.8367 H   0  0  0  0  0  0  0  0  0  0  0  0
  -20.9949    5.6362   -7.0162 H   0  0  0  0  0  0  0  0  0  0  0  0
  -20.9411    6.8763   -9.1413 H   0  0  0  0  0  0  0  0  0  0  0  0
  -20.0279    5.3687   -9.3090 H   0  0  0  0  0  0  0  0  0  0  0  0
  1  2  1  0
  1  8  1  0
  2  3  1  0
  2  7  1  0
  2  9  1  0
  3  4  1  0
  3 10  1  0
  3 11  1  0
  4  5  1  0
  4 12  1  0
  4 13  1  0
  5  6  1  0
  5 14  1  0
  5 15  1  0
  6  7  1  0
  6 16  1  0
  6 17  1  0
  7 18  1  0
  7 19  1  0
M  END
> <intraLJ>
-0.471    

> <intraEL>
-1.198    

> <intraDihe>
8.631     

> <interLJ>
0.000     

> <interEJ>
0.000     

> <gridLJ>
-3.191    

> <gridEL>
0.000     

> <totalE>
3.771     

> <LGFE>
-3.191  

> <LE>
-0.456  

> <SMILES>
OC1CCCCC1

> <atom.dprop.GFE>
-0.75 -0.51 -0.32 -0.32 -0.36 -0.42 -0.51 0 0 0 0 0 0 0 0 0 0 0 0

> <atom.prop.CLASS>
MEOO PRPC PRPC PRPC PRPC PRPC PRPC NCLA NCLA NCLA NCLA NCLA NCLA NCLA NCLA NCLA NCLA NCLA NCLA

$$$$
34
     RDKit          3D

 19 19  0  0  0  0  0  0  0  0999 V2000
    9.9163   12.5835  -36.1053 O   0  0  0  0  0  0  0  0  0  0  0  0
    8.5789   12.1432  -36.1209 C   0  0  0  0  0  0  0  0  0  0  0  0
    8.0215   12.2998  -37.5400 C   0  0  0  0  0  0  0  0  0  0  0  0
    6.5264   11.9428  -37.5910 C   0  0  0  0  0  0  0  0  0  0  0  0
    5.7269   12.7834  -36.5848 C   0  0  0  0  0  0  0  0  0  0  0  0
    6.2866   12.6287  -35.1626 C   0  0  0  0  0  0  0  0  0  0  0  0
    7.7801   12.9864  -35.1223 C   0  0  0  0  0  0  0  0  0  0  0  0
   10.4213   12.0584  -36.7297 H   0  0  0  0  0  0  0  0  0  0  0  0
    8.5296   11.0935  -35.8225 H   0  0  0  0  0  0  0  0  0  0  0  0
    8.5698   11.6476  -38.2205 H   0  0  0  0  0  0  0  0  0  0  0  0
    8.1549   13.3333  -37.8622 H   0  0  0  0  0  0  0  0  0  0  0  0
    6.3989   10.8835  -37.3567 H   0  0  0  0  0  0  0  0  0  0  0  0
    6.1450   12.1220  -38.5968 H   0  0  0  0  0  0  0  0  0  0  0  0
    4.6813   12.4705  -36.6000 H   0  0  0  0  0  0  0  0  0  0  0  0
    5.7740   13.8344  -36.8766 H   0  0  0  0  0  0  0  0  0  0  0  0
    6.1514   11.5974  -34.8298 H   0  0  0  0  0  0  0  0  0  0  0  0
    5.7391   13.2848  -34.4838 H   0  0  0  0  0  0  0  0  0  0  0  0
    7.9076   14.0423  -35.3673 H   0  0  0  0  0  0  0  0  0  0  0  0
    8.1700   12.8148  -34.1186 H   0  0  0  0  0  0  0  0  0  0  0  0
  1  2  1  0
  1  8  1  0
  2  3  1  0
  2  7  1  0
  2  9  1  0
  3  4  1  0
  3 10  1  0
  3 11  1  0
  4  5  1  0
  4 12  1  0
  4 13  1  0
  5  6  1  0
  5 14  1  0
  5 15  1  0
  6  7  1  0
  6 16  1  0
  6 17  1  0
  7 18  1  0
  7 19  1  0
M  END
> <intraLJ>
-0.471    

> <intraEL>
-1.198    

> <intraDihe>
8.631     

> <interLJ>
0.000     

> <interEJ>
0.000     

> <gridLJ>
-3.141    

> <gridEL>
0.000     

> <totalE>
3.820     

> <LGFE>
-3.141  

> <LE>
-0.449  

> <SMILES>
OC1CCCCC1

> <atom.dprop.GFE>
-1.5 -0.36 -0.3 -0.23 -0.26 -0.22 -0.29 0 0 0 0 0 0 0 0 0 0 0 0

> <atom.prop.CLASS>
MEOO PRPC PRPC PRPC PRPC PRPC PRPC NCLA NCLA NCLA NCLA NCLA NCLA NCLA NCLA NCLA NCLA NCLA NCLA

$$$$
34
     RDKit          3D

 19 19  0  0  0  0  0  0  0  0999 V2000
   -7.0637   10.1197   -7.7923 O   0  0  0  0  0  0  0  0  0  0  0  0
   -7.3160   10.5610   -9.1054 C   0  0  0  0  0  0  0  0  0  0  0  0
   -8.7731   11.0269   -9.2009 C   0  0  0  0  0  0  0  0  0  0  0  0
   -9.1387   11.4115  -10.6444 C   0  0  0  0  0  0  0  0  0  0  0  0
   -8.8637   10.2483  -11.6086 C   0  0  0  0  0  0  0  0  0  0  0  0
   -7.4041    9.7793  -11.5117 C   0  0  0  0  0  0  0  0  0  0  0  0
   -7.0484    9.3986  -10.0664 C   0  0  0  0  0  0  0  0  0  0  0  0
   -7.2302   10.8444   -7.1860 H   0  0  0  0  0  0  0  0  0  0  0  0
   -6.6499   11.3906   -9.3533 H   0  0  0  0  0  0  0  0  0  0  0  0
   -8.9228   11.8893   -8.5506 H   0  0  0  0  0  0  0  0  0  0  0  0
   -9.4268   10.2198   -8.8680 H   0  0  0  0  0  0  0  0  0  0  0  0
   -8.5482   12.2786  -10.9487 H   0  0  0  0  0  0  0  0  0  0  0  0
  -10.1948   11.6794  -10.6918 H   0  0  0  0  0  0  0  0  0  0  0  0
   -9.0763   10.5661  -12.6310 H   0  0  0  0  0  0  0  0  0  0  0  0
   -9.5253    9.4149  -11.3646 H   0  0  0  0  0  0  0  0  0  0  0  0
   -6.7426   10.5800  -11.8492 H   0  0  0  0  0  0  0  0  0  0  0  0
   -7.2571    8.9140  -12.1603 H   0  0  0  0  0  0  0  0  0  0  0  0
   -7.6467    8.5390   -9.7594 H   0  0  0  0  0  0  0  0  0  0  0  0
   -5.9946    9.1245  -10.0096 H   0  0  0  0  0  0  0  0  0  0  0  0
  1  2  1  0
  1  8  1  0
  2  3  1  0
  2  7  1  0
  2  9  1  0
  3  4  1  0
  3 10  1  0
  3 11  1  0
  4  5  1  0
  4 12  1  0
  4 13  1  0
  5  6  1  0
  5 14  1  0
  5 15  1  0
  6  7  1  0
  6 16  1  0
  6 17  1  0
  7 18  1  0
  7 19  1  0
M  END
> <intraLJ>
-0.471    

> <intraEL>
-1.198    

> <intraDihe>
8.631     

> <interLJ>
0.000     

> <interEJ>
0.000     

> <gridLJ>
-3.133    

> <gridEL>
0.000     

> <totalE>
3.829     

> <LGFE>
-3.133  

> <LE>
-0.448  

> <SMILES>
OC1CCCCC1

> <atom.dprop.GFE>
-0.97 -0.43 -0.29 -0.28 -0.4 -0.37 -0.39 0 0 0 0 0 0 0 0 0 0 0 0

> <atom.prop.CLASS>
MEOO PRPC PRPC PRPC PRPC PRPC PRPC NCLA NCLA NCLA NCLA NCLA NCLA NCLA NCLA NCLA NCLA NCLA NCLA

$$$$
34
     RDKit          3D

 19 19  0  0  0  0  0  0  0  0999 V2000
   -8.6855    9.6977  -10.7150 O   0  0  0  0  0  0  0  0  0  0  0  0
   -7.5704   10.2964  -10.0981 C   0  0  0  0  0  0  0  0  0  0  0  0
   -6.3543    9.3803  -10.2746 C   0  0  0  0  0  0  0  0  0  0  0  0
   -5.1323    9.9293   -9.5192 C   0  0  0  0  0  0  0  0  0  0  0  0
   -5.4558   10.1419   -8.0331 C   0  0  0  0  0  0  0  0  0  0  0  0
   -6.6761   11.0580   -7.8555 C   0  0  0  0  0  0  0  0  0  0  0  0
   -7.8907   10.5020   -8.6144 C   0  0  0  0  0  0  0  0  0  0  0  0
   -8.4899    9.5663  -11.6451 H   0  0  0  0  0  0  0  0  0  0  0  0
   -7.3673   11.2663  -10.5578 H   0  0  0  0  0  0  0  0  0  0  0  0
   -6.1130    9.2960  -11.3346 H   0  0  0  0  0  0  0  0  0  0  0  0
   -6.5976    8.3887   -9.8910 H   0  0  0  0  0  0  0  0  0  0  0  0
   -4.8307   10.8814   -9.9617 H   0  0  0  0  0  0  0  0  0  0  0  0
   -4.3029    9.2274   -9.6127 H   0  0  0  0  0  0  0  0  0  0  0  0
   -4.5926   10.5852   -7.5334 H   0  0  0  0  0  0  0  0  0  0  0  0
   -5.6618    9.1758   -7.5682 H   0  0  0  0  0  0  0  0  0  0  0  0
   -6.4387   12.0554   -8.2318 H   0  0  0  0  0  0  0  0  0  0  0  0
   -6.9182   11.1383   -6.7944 H   0  0  0  0  0  0  0  0  0  0  0  0
   -8.1845    9.5454   -8.1786 H   0  0  0  0  0  0  0  0  0  0  0  0
   -8.7273   11.1952   -8.5229 H   0  0  0  0  0  0  0  0  0  0  0  0
  1  2  1  0
  1  8  1  0
  2  3  1  0
  2  7  1  0
  2  9  1  0
  3  4  1  0
  3 10  1  0
  3 11  1  0
  4  5  1  0
  4 12  1  0
  4 13  1  0
  5  6  1  0
  5 14  1  0
  5 15  1  0
  6  7  1  0
  6 16  1  0
  6 17  1  0
  7 18  1  0
  7 19  1  0
M  END
> <intraLJ>
-0.471    

> <intraEL>
-1.198    

> <intraDihe>
8.631     

> <interLJ>
0.000     

> <interEJ>
0.000     

> <gridLJ>
-3.117    

> <gridEL>
0.000     

> <totalE>
3.845     

> <LGFE>
-3.117  

> <LE>
-0.445  

> <SMILES>
OC1CCCCC1

> <atom.dprop.GFE>
-0.36 -0.43 -0.39 -0.46 -0.49 -0.55 -0.44 0 0 0 0 0 0 0 0 0 0 0 0

> <atom.prop.CLASS>
MEOO PRPC PRPC PRPC PRPC PRPC PRPC NCLA NCLA NCLA NCLA NCLA NCLA NCLA NCLA NCLA NCLA NCLA NCLA

$$$$
34
     RDKit          3D

 19 19  0  0  0  0  0  0  0  0999 V2000
  -25.0791    3.0670    5.5506 O   0  0  0  0  0  0  0  0  0  0  0  0
  -26.3735    2.8943    6.0773 C   0  0  0  0  0  0  0  0  0  0  0  0
  -26.5240    3.7750    7.3227 C   0  0  0  0  0  0  0  0  0  0  0  0
  -27.8804    3.5389    8.0081 C   0  0  0  0  0  0  0  0  0  0  0  0
  -28.0704    2.0543    8.3520 C   0  0  0  0  0  0  0  0  0  0  0  0
  -27.9173    1.1708    7.1046 C   0  0  0  0  0  0  0  0  0  0  0  0
  -26.5603    1.4147    6.4267 C   0  0  0  0  0  0  0  0  0  0  0  0
  -24.9567    3.9927    5.3302 H   0  0  0  0  0  0  0  0  0  0  0  0
  -27.1193    3.1829    5.3331 H   0  0  0  0  0  0  0  0  0  0  0  0
  -26.4434    4.8245    7.0381 H   0  0  0  0  0  0  0  0  0  0  0  0
  -25.7220    3.5396    8.0234 H   0  0  0  0  0  0  0  0  0  0  0  0
  -28.6838    3.8596    7.3411 H   0  0  0  0  0  0  0  0  0  0  0  0
  -27.9331    4.1320    8.9217 H   0  0  0  0  0  0  0  0  0  0  0  0
  -29.0620    1.9055    8.7833 H   0  0  0  0  0  0  0  0  0  0  0  0
  -27.3263    1.7590    9.0942 H   0  0  0  0  0  0  0  0  0  0  0  0
  -28.7206    1.3960    6.3998 H   0  0  0  0  0  0  0  0  0  0  0  0
  -27.9947    0.1209    7.3918 H   0  0  0  0  0  0  0  0  0  0  0  0
  -25.7578    1.1043    7.0981 H   0  0  0  0  0  0  0  0  0  0  0  0
  -26.4961    0.8219    5.5138 H   0  0  0  0  0  0  0  0  0  0  0  0
  1  2  1  0
  1  8  1  0
  2  3  1  0
  2  7  1  0
  2  9  1  0
  3  4  1  0
  3 10  1  0
  3 11  1  0
  4  5  1  0
  4 12  1  0
  4 13  1  0
  5  6  1  0
  5 14  1  0
  5 15  1  0
  6  7  1  0
  6 16  1  0
  6 17  1  0
  7 18  1  0
  7 19  1  0
M  END
> <intraLJ>
-0.471    

> <intraEL>
-1.198    

> <intraDihe>
8.631     

> <interLJ>
0.000     

> <interEJ>
0.000     

> <gridLJ>
-3.042    

> <gridEL>
0.000     

> <totalE>
3.920     

> <LGFE>
-3.042  

> <LE>
-0.435  

> <SMILES>
OC1CCCCC1

> <atom.dprop.GFE>
-0.86 -0.36 -0.35 -0.34 -0.37 -0.39 -0.38 0 0 0 0 0 0 0 0 0 0 0 0

> <atom.prop.CLASS>
MEOO PRPC PRPC PRPC PRPC PRPC PRPC NCLA NCLA NCLA NCLA NCLA NCLA NCLA NCLA NCLA NCLA NCLA NCLA

$$$$
34
     RDKit          3D

 19 19  0  0  0  0  0  0  0  0999 V2000
   22.0665    3.7775  -30.9815 O   0  0  0  0  0  0  0  0  0  0  0  0
   22.9144    2.6543  -30.9368 C   0  0  0  0  0  0  0  0  0  0  0  0
   22.0594    1.3936  -30.7673 C   0  0  0  0  0  0  0  0  0  0  0  0
   22.9408    0.1449  -30.5952 C   0  0  0  0  0  0  0  0  0  0  0  0
   23.9136    0.3178  -29.4196 C   0  0  0  0  0  0  0  0  0  0  0  0
   24.7692    1.5826  -29.5877 C   0  0  0  0  0  0  0  0  0  0  0  0
   23.8801    2.8236  -29.7600 C   0  0  0  0  0  0  0  0  0  0  0  0
   21.4589    3.6763  -31.7173 H   0  0  0  0  0  0  0  0  0  0  0  0
   23.4887    2.5848  -31.8635 H   0  0  0  0  0  0  0  0  0  0  0  0
   21.4224    1.2654  -31.6430 H   0  0  0  0  0  0  0  0  0  0  0  0
   21.4256    1.5096  -29.8873 H   0  0  0  0  0  0  0  0  0  0  0  0
   23.5102   -0.0255  -31.5117 H   0  0  0  0  0  0  0  0  0  0  0  0
   22.3069   -0.7243  -30.4162 H   0  0  0  0  0  0  0  0  0  0  0  0
   24.5649   -0.5558  -29.3558 H   0  0  0  0  0  0  0  0  0  0  0  0
   23.3454    0.3899  -28.4903 H   0  0  0  0  0  0  0  0  0  0  0  0
   25.4117    1.4721  -30.4639 H   0  0  0  0  0  0  0  0  0  0  0  0
   25.4034    1.7111  -28.7089 H   0  0  0  0  0  0  0  0  0  0  0  0
   23.3034    2.9867  -28.8479 H   0  0  0  0  0  0  0  0  0  0  0  0
   24.5054    3.6995  -29.9351 H   0  0  0  0  0  0  0  0  0  0  0  0
  1  2  1  0
  1  8  1  0
  2  3  1  0
  2  7  1  0
  2  9  1  0
  3  4  1  0
  3 10  1  0
  3 11  1  0
  4  5  1  0
  4 12  1  0
  4 13  1  0
  5  6  1  0
  5 14  1  0
  5 15  1  0
  6  7  1  0
  6 16  1  0
  6 17  1  0
  7 18  1  0
  7 19  1  0
M  END
> <intraLJ>
-0.471    

> <intraEL>
-1.198    

> <intraDihe>
8.631     

> <interLJ>
0.000     

> <interEJ>
0.000     

> <gridLJ>
-2.990    

> <gridEL>
0.000     

> <totalE>
3.972     

> <LGFE>
-2.990  

> <LE>
-0.427  

> <SMILES>
OC1CCCCC1

> <atom.dprop.GFE>
-1.5 -0.37 -0.27 -0.21 -0.25 -0.21 -0.23 0 0 0 0 0 0 0 0 0 0 0 0

> <atom.prop.CLASS>
MEOO PRPC PRPC PRPC PRPC PRPC PRPC NCLA NCLA NCLA NCLA NCLA NCLA NCLA NCLA NCLA NCLA NCLA NCLA

$$$$
34
     RDKit          3D

 19 19  0  0  0  0  0  0  0  0999 V2000
  -40.9621    0.5633   27.5854 O   0  0  0  0  0  0  0  0  0  0  0  0
  -40.6975   -0.7995   27.3500 C   0  0  0  0  0  0  0  0  0  0  0  0
  -39.4796   -1.2191   28.1805 C   0  0  0  0  0  0  0  0  0  0  0  0
  -39.0729   -2.6704   27.8740 C   0  0  0  0  0  0  0  0  0  0  0  0
  -38.8135   -2.8621   26.3725 C   0  0  0  0  0  0  0  0  0  0  0  0
  -40.0330   -2.4393   25.5394 C   0  0  0  0  0  0  0  0  0  0  0  0
  -40.4319   -0.9894   25.8535 C   0  0  0  0  0  0  0  0  0  0  0  0
  -41.1289    0.6878   28.5221 H   0  0  0  0  0  0  0  0  0  0  0  0
  -41.5621   -1.4014   27.6390 H   0  0  0  0  0  0  0  0  0  0  0  0
  -39.7138   -1.1284   29.2416 H   0  0  0  0  0  0  0  0  0  0  0  0
  -38.6454   -0.5560   27.9482 H   0  0  0  0  0  0  0  0  0  0  0  0
  -39.8718   -3.3448   28.1903 H   0  0  0  0  0  0  0  0  0  0  0  0
  -38.1699   -2.9195   28.4324 H   0  0  0  0  0  0  0  0  0  0  0  0
  -38.5839   -3.9107   26.1747 H   0  0  0  0  0  0  0  0  0  0  0  0
  -37.9513   -2.2611   26.0770 H   0  0  0  0  0  0  0  0  0  0  0  0
  -40.8717   -3.1026   25.7617 H   0  0  0  0  0  0  0  0  0  0  0  0
  -39.7955   -2.5274   24.4779 H   0  0  0  0  0  0  0  0  0  0  0  0
  -39.6286   -0.3171   25.5473 H   0  0  0  0  0  0  0  0  0  0  0  0
  -41.3320   -0.7291   25.2958 H   0  0  0  0  0  0  0  0  0  0  0  0
  1  2  1  0
  1  8  1  0
  2  3  1  0
  2  7  1  0
  2  9  1  0
  3  4  1  0
  3 10  1  0
  3 11  1  0
  4  5  1  0
  4 12  1  0
  4 13  1  0
  5  6  1  0
  5 14  1  0
  5 15  1  0
  6  7  1  0
  6 16  1  0
  6 17  1  0
  7 18  1  0
  7 19  1  0
M  END
> <intraLJ>
-0.471    

> <intraEL>
-1.198    

> <intraDihe>
8.631     

> <interLJ>
0.000     

> <interEJ>
0.000     

> <gridLJ>
-2.962    

> <gridEL>
0.000     

> <totalE>
4.000     

> <LGFE>
-2.962  

> <LE>
-0.423  

> <SMILES>
OC1CCCCC1

> <atom.dprop.GFE>
-0.45 -0.41 -0.43 -0.39 -0.42 -0.47 -0.4 0 0 0 0 0 0 0 0 0 0 0 0

> <atom.prop.CLASS>
MEOO PRPC PRPC PRPC PRPC PRPC PRPC NCLA NCLA NCLA NCLA NCLA NCLA NCLA NCLA NCLA NCLA NCLA NCLA

$$$$
34
     RDKit          3D

 19 19  0  0  0  0  0  0  0  0999 V2000
  -30.3501   14.0267   15.3211 O   0  0  0  0  0  0  0  0  0  0  0  0
  -29.3350   14.3656   16.2363 C   0  0  0  0  0  0  0  0  0  0  0  0
  -28.4121   13.1564   16.4237 C   0  0  0  0  0  0  0  0  0  0  0  0
  -27.3508   13.4309   17.5025 C   0  0  0  0  0  0  0  0  0  0  0  0
  -28.0093   13.8373   18.8291 C   0  0  0  0  0  0  0  0  0  0  0  0
  -28.9364   15.0478   18.6414 C   0  0  0  0  0  0  0  0  0  0  0  0
  -29.9917   14.7643   17.5614 C   0  0  0  0  0  0  0  0  0  0  0  0
  -29.9439   13.7758   14.4889 H   0  0  0  0  0  0  0  0  0  0  0  0
  -28.7575   15.2107   15.8548 H   0  0  0  0  0  0  0  0  0  0  0  0
  -27.9146   12.9286   15.4805 H   0  0  0  0  0  0  0  0  0  0  0  0
  -29.0112   12.2946   16.7206 H   0  0  0  0  0  0  0  0  0  0  0  0
  -26.6922   14.2349   17.1663 H   0  0  0  0  0  0  0  0  0  0  0  0
  -26.7497   12.5340   17.6562 H   0  0  0  0  0  0  0  0  0  0  0  0
  -27.2352   14.0820   19.5586 H   0  0  0  0  0  0  0  0  0  0  0  0
  -28.5899   12.9971   19.2146 H   0  0  0  0  0  0  0  0  0  0  0  0
  -28.3433   15.9172   18.3497 H   0  0  0  0  0  0  0  0  0  0  0  0
  -29.4360   15.2720   19.5853 H   0  0  0  0  0  0  0  0  0  0  0  0
  -30.6424   13.9535   17.8934 H   0  0  0  0  0  0  0  0  0  0  0  0
  -30.6013   15.6544   17.4037 H   0  0  0  0  0  0  0  0  0  0  0  0
  1  2  1  0
  1  8  1  0
  2  3  1  0
  2  7  1  0
  2  9  1  0
  3  4  1  0
  3 10  1  0
  3 11  1  0
  4  5  1  0
  4 12  1  0
  4 13  1  0
  5  6  1  0
  5 14  1  0
  5 15  1  0
  6  7  1  0
  6 16  1  0
  6 17  1  0
  7 18  1  0
  7 19  1  0
M  END
> <intraLJ>
-0.471    

> <intraEL>
-1.198    

> <intraDihe>
8.631     

> <interLJ>
0.000     

> <interEJ>
0.000     

> <gridLJ>
-2.925    

> <gridEL>
0.000     

> <totalE>
4.037     

> <LGFE>
-2.925  

> <LE>
-0.418  

> <SMILES>
OC1CCCCC1

> <atom.dprop.GFE>
-0.51 -0.27 -0.39 -0.46 -0.48 -0.45 -0.36 0 0 0 0 0 0 0 0 0 0 0 0

> <atom.prop.CLASS>
MEOO PRPC PRPC PRPC PRPC PRPC PRPC NCLA NCLA NCLA NCLA NCLA NCLA NCLA NCLA NCLA NCLA NCLA NCLA

$$$$
34
     RDKit          3D

 19 19  0  0  0  0  0  0  0  0999 V2000
   23.4272    0.2045  -22.3286 O   0  0  0  0  0  0  0  0  0  0  0  0
   23.6534    0.9867  -21.1798 C   0  0  0  0  0  0  0  0  0  0  0  0
   25.1637    1.0924  -20.9411 C   0  0  0  0  0  0  0  0  0  0  0  0
   25.4670    1.8396  -19.6314 C   0  0  0  0  0  0  0  0  0  0  0  0
   24.7627    1.1704  -18.4421 C   0  0  0  0  0  0  0  0  0  0  0  0
   23.2492    1.0620  -18.6819 C   0  0  0  0  0  0  0  0  0  0  0  0
   22.9567    0.3155  -19.9924 C   0  0  0  0  0  0  0  0  0  0  0  0
   23.8620    0.6207  -23.0758 H   0  0  0  0  0  0  0  0  0  0  0  0
   23.2349    1.9857  -21.3220 H   0  0  0  0  0  0  0  0  0  0  0  0
   25.6274    1.6233  -21.7730 H   0  0  0  0  0  0  0  0  0  0  0  0
   25.5862    0.0883  -20.8876 H   0  0  0  0  0  0  0  0  0  0  0  0
   25.1253    2.8735  -19.7169 H   0  0  0  0  0  0  0  0  0  0  0  0
   26.5438    1.8453  -19.4584 H   0  0  0  0  0  0  0  0  0  0  0  0
   24.9466    1.7521  -17.5371 H   0  0  0  0  0  0  0  0  0  0  0  0
   25.1754    0.1703  -18.2962 H   0  0  0  0  0  0  0  0  0  0  0  0
   22.8170    2.0637  -18.7308 H   0  0  0  0  0  0  0  0  0  0  0  0
   22.7874    0.5273  -17.8501 H   0  0  0  0  0  0  0  0  0  0  0  0
   23.3084   -0.7144  -19.9101 H   0  0  0  0  0  0  0  0  0  0  0  0
   21.8813    0.3003  -20.1720 H   0  0  0  0  0  0  0  0  0  0  0  0
  1  2  1  0
  1  8  1  0
  2  3  1  0
  2  7  1  0
  2  9  1  0
  3  4  1  0
  3 10  1  0
  3 11  1  0
  4  5  1  0
  4 12  1  0
  4 13  1  0
  5  6  1  0
  5 14  1  0
  5 15  1  0
  6  7  1  0
  6 16  1  0
  6 17  1  0
  7 18  1  0
  7 19  1  0
M  END
> <intraLJ>
-0.471    

> <intraEL>
-1.198    

> <intraDihe>
8.631     

> <interLJ>
0.000     

> <interEJ>
0.000     

> <gridLJ>
-2.901    

> <gridEL>
0.000     

> <totalE>
4.061     

> <LGFE>
-2.901  

> <LE>
-0.414  

> <SMILES>
OC1CCCCC1

> <atom.dprop.GFE>
-0.84 -0.46 -0.2 -0.22 -0.33 -0.42 -0.44 0 0 0 0 0 0 0 0 0 0 0 0

> <atom.prop.CLASS>
MEOO PRPC PRPC PRPC PRPC PRPC PRPC NCLA NCLA NCLA NCLA NCLA NCLA NCLA NCLA NCLA NCLA NCLA NCLA

$$$$
34
     RDKit          3D

 19 19  0  0  0  0  0  0  0  0999 V2000
   24.5901   10.4124  -16.5390 O   0  0  0  0  0  0  0  0  0  0  0  0
   23.7867   11.5632  -16.6518 C   0  0  0  0  0  0  0  0  0  0  0  0
   22.6192   11.2624  -17.5981 C   0  0  0  0  0  0  0  0  0  0  0  0
   21.7719   12.5209  -17.8507 C   0  0  0  0  0  0  0  0  0  0  0  0
   22.6401   13.6682  -18.3878 C   0  0  0  0  0  0  0  0  0  0  0  0
   23.8119   13.9685  -17.4409 C   0  0  0  0  0  0  0  0  0  0  0  0
   24.6511   12.7056  -17.1939 C   0  0  0  0  0  0  0  0  0  0  0  0
   24.0531    9.6933  -16.1999 H   0  0  0  0  0  0  0  0  0  0  0  0
   23.3986   11.8434  -15.6698 H   0  0  0  0  0  0  0  0  0  0  0  0
   21.9886   10.4865  -17.1630 H   0  0  0  0  0  0  0  0  0  0  0  0
   23.0154   10.9000  -18.5475 H   0  0  0  0  0  0  0  0  0  0  0  0
   21.3001   12.8333  -16.9164 H   0  0  0  0  0  0  0  0  0  0  0  0
   20.9879   12.2911  -18.5731 H   0  0  0  0  0  0  0  0  0  0  0  0
   22.0271   14.5640  -18.5031 H   0  0  0  0  0  0  0  0  0  0  0  0
   23.0327   13.3933  -19.3686 H   0  0  0  0  0  0  0  0  0  0  0  0
   23.4237   14.3380  -16.4892 H   0  0  0  0  0  0  0  0  0  0  0  0
   24.4437   14.7427  -17.8796 H   0  0  0  0  0  0  0  0  0  0  0  0
   25.1132   12.3878  -18.1302 H   0  0  0  0  0  0  0  0  0  0  0  0
   25.4412   12.9266  -16.4758 H   0  0  0  0  0  0  0  0  0  0  0  0
  1  2  1  0
  1  8  1  0
  2  3  1  0
  2  7  1  0
  2  9  1  0
  3  4  1  0
  3 10  1  0
  3 11  1  0
  4  5  1  0
  4 12  1  0
  4 13  1  0
  5  6  1  0
  5 14  1  0
  5 15  1  0
  6  7  1  0
  6 16  1  0
  6 17  1  0
  7 18  1  0
  7 19  1  0
M  END
> <intraLJ>
-0.471    

> <intraEL>
-1.198    

> <intraDihe>
8.631     

> <interLJ>
0.000     

> <interEJ>
0.000     

> <gridLJ>
-2.820    

> <gridEL>
0.000     

> <totalE>
4.141     

> <LGFE>
-2.820  

> <LE>
-0.403  

> <SMILES>
OC1CCCCC1

> <atom.dprop.GFE>
-0.5 -0.37 -0.43 -0.48 -0.37 -0.36 -0.32 0 0 0 0 0 0 0 0 0 0 0 0

> <atom.prop.CLASS>
MEOO PRPC PRPC PRPC PRPC PRPC PRPC NCLA NCLA NCLA NCLA NCLA NCLA NCLA NCLA NCLA NCLA NCLA NCLA

$$$$
34
     RDKit          3D

 19 19  0  0  0  0  0  0  0  0999 V2000
   14.2249    7.1150  -43.9101 O   0  0  0  0  0  0  0  0  0  0  0  0
   13.9198    5.8319  -43.4170 C   0  0  0  0  0  0  0  0  0  0  0  0
   14.3077    4.7898  -44.4718 C   0  0  0  0  0  0  0  0  0  0  0  0
   13.8892    3.3759  -44.0344 C   0  0  0  0  0  0  0  0  0  0  0  0
   12.3860    3.3196  -43.7252 C   0  0  0  0  0  0  0  0  0  0  0  0
   11.9963    4.3655  -42.6697 C   0  0  0  0  0  0  0  0  0  0  0  0
   12.4193    5.7737  -43.1151 C   0  0  0  0  0  0  0  0  0  0  0  0
   15.1642    7.1568  -44.1013 H   0  0  0  0  0  0  0  0  0  0  0  0
   14.4774    5.6452  -42.4963 H   0  0  0  0  0  0  0  0  0  0  0  0
   15.3868    4.8130  -44.6269 H   0  0  0  0  0  0  0  0  0  0  0  0
   13.8135    5.0354  -45.4126 H   0  0  0  0  0  0  0  0  0  0  0  0
   14.4513    3.0918  -43.1420 H   0  0  0  0  0  0  0  0  0  0  0  0
   14.1224    2.6667  -44.8294 H   0  0  0  0  0  0  0  0  0  0  0  0
   12.1271    2.3232  -43.3625 H   0  0  0  0  0  0  0  0  0  0  0  0
   11.8231    3.5075  -44.6415 H   0  0  0  0  0  0  0  0  0  0  0  0
   12.4824    4.1233  -41.7222 H   0  0  0  0  0  0  0  0  0  0  0  0
   10.9157    4.3432  -42.5185 H   0  0  0  0  0  0  0  0  0  0  0  0
   11.8653    6.0524  -44.0131 H   0  0  0  0  0  0  0  0  0  0  0  0
   12.1858    6.4913  -42.3281 H   0  0  0  0  0  0  0  0  0  0  0  0
  1  2  1  0
  1  8  1  0
  2  3  1  0
  2  7  1  0
  2  9  1  0
  3  4  1  0
  3 10  1  0
  3 11  1  0
  4  5  1  0
  4 12  1  0
  4 13  1  0
  5  6  1  0
  5 14  1  0
  5 15  1  0
  6  7  1  0
  6 16  1  0
  6 17  1  0
  7 18  1  0
  7 19  1  0
M  END
> <intraLJ>
-0.471    

> <intraEL>
-1.198    

> <intraDihe>
8.631     

> <interLJ>
0.000     

> <interEJ>
0.000     

> <gridLJ>
-2.805    

> <gridEL>
0.000     

> <totalE>
4.157     

> <LGFE>
-2.805  

> <LE>
-0.401  

> <SMILES>
OC1CCCCC1

> <atom.dprop.GFE>
-0.76 -0.37 -0.33 -0.32 -0.33 -0.34 -0.37 0 0 0 0 0 0 0 0 0 0 0 0

> <atom.prop.CLASS>
MEOO PRPC PRPC PRPC PRPC PRPC PRPC NCLA NCLA NCLA NCLA NCLA NCLA NCLA NCLA NCLA NCLA NCLA NCLA

$$$$
34
     RDKit          3D

 19 19  0  0  0  0  0  0  0  0999 V2000
  -25.2145   -1.3880  -16.8011 O   0  0  0  0  0  0  0  0  0  0  0  0
  -25.4135   -1.8889  -18.1019 C   0  0  0  0  0  0  0  0  0  0  0  0
  -24.7823   -3.2822  -18.1990 C   0  0  0  0  0  0  0  0  0  0  0  0
  -24.8673   -3.8307  -19.6334 C   0  0  0  0  0  0  0  0  0  0  0  0
  -24.2222   -2.8584  -20.6318 C   0  0  0  0  0  0  0  0  0  0  0  0
  -24.8529   -1.4610  -20.5332 C   0  0  0  0  0  0  0  0  0  0  0  0
  -24.7640   -0.9226  -19.0971 C   0  0  0  0  0  0  0  0  0  0  0  0
  -25.6195   -1.9901  -16.1733 H   0  0  0  0  0  0  0  0  0  0  0  0
  -26.4829   -1.9564  -18.3148 H   0  0  0  0  0  0  0  0  0  0  0  0
  -25.2990   -3.9638  -17.5227 H   0  0  0  0  0  0  0  0  0  0  0  0
  -23.7351   -3.2196  -17.9002 H   0  0  0  0  0  0  0  0  0  0  0  0
  -25.9154   -3.9801  -19.9023 H   0  0  0  0  0  0  0  0  0  0  0  0
  -24.3575   -4.7934  -19.6842 H   0  0  0  0  0  0  0  0  0  0  0  0
  -24.3473   -3.2430  -21.6456 H   0  0  0  0  0  0  0  0  0  0  0  0
  -23.1532   -2.7851  -20.4228 H   0  0  0  0  0  0  0  0  0  0  0  0
  -25.9007   -1.5137  -20.8368 H   0  0  0  0  0  0  0  0  0  0  0  0
  -24.3322   -0.7795  -21.2080 H   0  0  0  0  0  0  0  0  0  0  0  0
  -23.7161   -0.7840  -18.8253 H   0  0  0  0  0  0  0  0  0  0  0  0
  -25.2674    0.0427  -19.0371 H   0  0  0  0  0  0  0  0  0  0  0  0
  1  2  1  0
  1  8  1  0
  2  3  1  0
  2  7  1  0
  2  9  1  0
  3  4  1  0
  3 10  1  0
  3 11  1  0
  4  5  1  0
  4 12  1  0
  4 13  1  0
  5  6  1  0
  5 14  1  0
  5 15  1  0
  6  7  1  0
  6 16  1  0
  6 17  1  0
  7 18  1  0
  7 19  1  0
M  END
> <intraLJ>
-0.471    

> <intraEL>
-1.198    

> <intraDihe>
8.631     

> <interLJ>
0.000     

> <interEJ>
0.000     

> <gridLJ>
-2.753    

> <gridEL>
0.000     

> <totalE>
4.209     

> <LGFE>
-2.753  

> <LE>
-0.393  

> <SMILES>
OC1CCCCC1

> <atom.dprop.GFE>
-0.26 -0.4 -0.45 -0.43 -0.41 -0.38 -0.42 0 0 0 0 0 0 0 0 0 0 0 0

> <atom.prop.CLASS>
MEOO PRPC PRPC PRPC PRPC PRPC PRPC NCLA NCLA NCLA NCLA NCLA NCLA NCLA NCLA NCLA NCLA NCLA NCLA

$$$$
34
     RDKit          3D

 19 19  0  0  0  0  0  0  0  0999 V2000
   23.1057    5.2442   -8.1471 O   0  0  0  0  0  0  0  0  0  0  0  0
   23.6327    6.5296   -7.9175 C   0  0  0  0  0  0  0  0  0  0  0  0
   23.9917    7.1665   -9.2646 C   0  0  0  0  0  0  0  0  0  0  0  0
   24.6808    8.5274   -9.0684 C   0  0  0  0  0  0  0  0  0  0  0  0
   25.9198    8.3908   -8.1714 C   0  0  0  0  0  0  0  0  0  0  0  0
   25.5611    7.7502   -6.8220 C   0  0  0  0  0  0  0  0  0  0  0  0
   24.8726    6.3925   -7.0286 C   0  0  0  0  0  0  0  0  0  0  0  0
   22.3285    5.3244   -8.7040 H   0  0  0  0  0  0  0  0  0  0  0  0
   22.8925    7.1490   -7.4058 H   0  0  0  0  0  0  0  0  0  0  0  0
   23.0853    7.3048   -9.8548 H   0  0  0  0  0  0  0  0  0  0  0  0
   24.6633    6.4988   -9.8057 H   0  0  0  0  0  0  0  0  0  0  0  0
   23.9783    9.2259   -8.6081 H   0  0  0  0  0  0  0  0  0  0  0  0
   24.9781    8.9264  -10.0387 H   0  0  0  0  0  0  0  0  0  0  0  0
   26.3554    9.3770   -8.0013 H   0  0  0  0  0  0  0  0  0  0  0  0
   26.6629    7.7708   -8.6766 H   0  0  0  0  0  0  0  0  0  0  0  0
   24.8931    8.4156   -6.2707 H   0  0  0  0  0  0  0  0  0  0  0  0
   26.4698    7.6094   -6.2342 H   0  0  0  0  0  0  0  0  0  0  0  0
   25.5716    5.6985   -7.4986 H   0  0  0  0  0  0  0  0  0  0  0  0
   24.5753    5.9829   -6.0628 H   0  0  0  0  0  0  0  0  0  0  0  0
  1  2  1  0
  1  8  1  0
  2  3  1  0
  2  7  1  0
  2  9  1  0
  3  4  1  0
  3 10  1  0
  3 11  1  0
  4  5  1  0
  4 12  1  0
  4 13  1  0
  5  6  1  0
  5 14  1  0
  5 15  1  0
  6  7  1  0
  6 16  1  0
  6 17  1  0
  7 18  1  0
  7 19  1  0
M  END
> <intraLJ>
-0.471    

> <intraEL>
-1.198    

> <intraDihe>
8.631     

> <interLJ>
0.000     

> <interEJ>
0.000     

> <gridLJ>
-2.703    

> <gridEL>
0.000     

> <totalE>
4.259     

> <LGFE>
-2.703  

> <LE>
-0.386  

> <SMILES>
OC1CCCCC1

> <atom.dprop.GFE>
-0.62 -0.38 -0.41 -0.37 -0.32 -0.3 -0.3 0 0 0 0 0 0 0 0 0 0 0 0

> <atom.prop.CLASS>
MEOO PRPC PRPC PRPC PRPC PRPC PRPC NCLA NCLA NCLA NCLA NCLA NCLA NCLA NCLA NCLA NCLA NCLA NCLA

$$$$
34
     RDKit          3D

 19 19  0  0  0  0  0  0  0  0999 V2000
  -23.7319   -8.9453    4.8978 O   0  0  0  0  0  0  0  0  0  0  0  0
  -23.4439   -9.1534    6.2603 C   0  0  0  0  0  0  0  0  0  0  0  0
  -21.9233   -9.1486    6.4523 C   0  0  0  0  0  0  0  0  0  0  0  0
  -21.5467   -9.4878    7.9044 C   0  0  0  0  0  0  0  0  0  0  0  0
  -22.1555  -10.8321    8.3294 C   0  0  0  0  0  0  0  0  0  0  0  0
  -23.6794  -10.8384    8.1349 C   0  0  0  0  0  0  0  0  0  0  0  0
  -24.0452  -10.4974    6.6823 C   0  0  0  0  0  0  0  0  0  0  0  0
  -23.3570   -8.1043    4.6281 H   0  0  0  0  0  0  0  0  0  0  0  0
  -23.8907   -8.3575    6.8605 H   0  0  0  0  0  0  0  0  0  0  0  0
  -21.5275   -8.1645    6.1993 H   0  0  0  0  0  0  0  0  0  0  0  0
  -21.4784   -9.8872    5.7843 H   0  0  0  0  0  0  0  0  0  0  0  0
  -21.9139   -8.7008    8.5670 H   0  0  0  0  0  0  0  0  0  0  0  0
  -20.4611   -9.5368    7.9954 H   0  0  0  0  0  0  0  0  0  0  0  0
  -21.9222  -11.0208    9.3788 H   0  0  0  0  0  0  0  0  0  0  0  0
  -21.7143  -11.6318    7.7314 H   0  0  0  0  0  0  0  0  0  0  0  0
  -24.1336  -10.1053    8.8050 H   0  0  0  0  0  0  0  0  0  0  0  0
  -24.0731  -11.8249    8.3851 H   0  0  0  0  0  0  0  0  0  0  0  0
  -23.6684  -11.2787    6.0198 H   0  0  0  0  0  0  0  0  0  0  0  0
  -25.1297  -10.4506    6.5800 H   0  0  0  0  0  0  0  0  0  0  0  0
  1  2  1  0
  1  8  1  0
  2  3  1  0
  2  7  1  0
  2  9  1  0
  3  4  1  0
  3 10  1  0
  3 11  1  0
  4  5  1  0
  4 12  1  0
  4 13  1  0
  5  6  1  0
  5 14  1  0
  5 15  1  0
  6  7  1  0
  6 16  1  0
  6 17  1  0
  7 18  1  0
  7 19  1  0
M  END
> <intraLJ>
-0.471    

> <intraEL>
-1.198    

> <intraDihe>
8.631     

> <interLJ>
0.000     

> <interEJ>
0.000     

> <gridLJ>
-2.653    

> <gridEL>
0.000     

> <totalE>
4.309     

> <LGFE>
-2.653  

> <LE>
-0.379  

> <SMILES>
OC1CCCCC1

> <atom.dprop.GFE>
-0.027 -0.4 -0.44 -0.43 -0.47 -0.43 -0.46 0 0 0 0 0 0 0 0 0 0 0 0

> <atom.prop.CLASS>
MEOO PRPC PRPC PRPC PRPC PRPC PRPC NCLA NCLA NCLA NCLA NCLA NCLA NCLA NCLA NCLA NCLA NCLA NCLA

$$$$
34
     RDKit          3D

 19 19  0  0  0  0  0  0  0  0999 V2000
   16.3313   14.1874  -33.6914 O   0  0  0  0  0  0  0  0  0  0  0  0
   15.3579   15.0904  -34.1601 C   0  0  0  0  0  0  0  0  0  0  0  0
   14.9406   14.6790  -35.5764 C   0  0  0  0  0  0  0  0  0  0  0  0
   13.9630   15.6988  -36.1845 C   0  0  0  0  0  0  0  0  0  0  0  0
   14.5653   17.1114  -36.1717 C   0  0  0  0  0  0  0  0  0  0  0  0
   14.9860   17.5233  -34.7528 C   0  0  0  0  0  0  0  0  0  0  0  0
   15.9611   16.4983  -34.1538 C   0  0  0  0  0  0  0  0  0  0  0  0
   15.9584   13.3033  -33.6936 H   0  0  0  0  0  0  0  0  0  0  0  0
   14.4861   15.0719  -33.5022 H   0  0  0  0  0  0  0  0  0  0  0  0
   14.4636   13.6990  -35.5451 H   0  0  0  0  0  0  0  0  0  0  0  0
   15.8299   14.6157  -36.2047 H   0  0  0  0  0  0  0  0  0  0  0  0
   13.0346   15.6980  -35.6090 H   0  0  0  0  0  0  0  0  0  0  0  0
   13.7326   15.4124  -37.2113 H   0  0  0  0  0  0  0  0  0  0  0  0
   13.8309   17.8227  -36.5540 H   0  0  0  0  0  0  0  0  0  0  0  0
   15.4387   17.1359  -36.8262 H   0  0  0  0  0  0  0  0  0  0  0  0
   14.1000   17.5951  -34.1182 H   0  0  0  0  0  0  0  0  0  0  0  0
   15.4662   18.5027  -34.7867 H   0  0  0  0  0  0  0  0  0  0  0  0
   16.8842   16.4918  -34.7360 H   0  0  0  0  0  0  0  0  0  0  0  0
   16.2013   16.7787  -33.1279 H   0  0  0  0  0  0  0  0  0  0  0  0
  1  2  1  0
  1  8  1  0
  2  3  1  0
  2  7  1  0
  2  9  1  0
  3  4  1  0
  3 10  1  0
  3 11  1  0
  4  5  1  0
  4 12  1  0
  4 13  1  0
  5  6  1  0
  5 14  1  0
  5 15  1  0
  6  7  1  0
  6 16  1  0
  6 17  1  0
  7 18  1  0
  7 19  1  0
M  END
> <intraLJ>
-0.471    

> <intraEL>
-1.198    

> <intraDihe>
8.631     

> <interLJ>
0.000     

> <interEJ>
0.000     

> <gridLJ>
-2.643    

> <gridEL>
0.000     

> <totalE>
4.319     

> <LGFE>
-2.643  

> <LE>
-0.378  

> <SMILES>
OC1CCCCC1

> <atom.dprop.GFE>
-0.89 -0.45 -0.33 -0.28 -0.27 -0.16 -0.27 0 0 0 0 0 0 0 0 0 0 0 0

> <atom.prop.CLASS>
MEOO PRPC PRPC PRPC PRPC PRPC PRPC NCLA NCLA NCLA NCLA NCLA NCLA NCLA NCLA NCLA NCLA NCLA NCLA

$$$$
34
     RDKit          3D

 19 19  0  0  0  0  0  0  0  0999 V2000
  -26.0603  -16.9781    8.0328 O   0  0  0  0  0  0  0  0  0  0  0  0
  -25.4808  -17.8427    7.0845 C   0  0  0  0  0  0  0  0  0  0  0  0
  -24.0992  -17.3025    6.6995 C   0  0  0  0  0  0  0  0  0  0  0  0
  -23.4671  -18.1448    5.5786 C   0  0  0  0  0  0  0  0  0  0  0  0
  -24.3949  -18.2171    4.3569 C   0  0  0  0  0  0  0  0  0  0  0  0
  -25.7807  -18.7563    4.7426 C   0  0  0  0  0  0  0  0  0  0  0  0
  -26.4029  -17.9093    5.8632 C   0  0  0  0  0  0  0  0  0  0  0  0
  -25.4862  -16.9325    8.8002 H   0  0  0  0  0  0  0  0  0  0  0  0
  -25.3767  -18.8439    7.5090 H   0  0  0  0  0  0  0  0  0  0  0  0
  -23.4459  -17.3184    7.5724 H   0  0  0  0  0  0  0  0  0  0  0  0
  -24.2029  -16.2716    6.3587 H   0  0  0  0  0  0  0  0  0  0  0  0
  -23.2784  -19.1554    5.9476 H   0  0  0  0  0  0  0  0  0  0  0  0
  -22.5151  -17.7014    5.2848 H   0  0  0  0  0  0  0  0  0  0  0  0
  -23.9497  -18.8664    3.6009 H   0  0  0  0  0  0  0  0  0  0  0  0
  -24.5047  -17.2187    3.9292 H   0  0  0  0  0  0  0  0  0  0  0  0
  -25.6865  -19.7909    5.0795 H   0  0  0  0  0  0  0  0  0  0  0  0
  -26.4340  -18.7362    3.8687 H   0  0  0  0  0  0  0  0  0  0  0  0
  -26.5810  -16.8967    5.4971 H   0  0  0  0  0  0  0  0  0  0  0  0
  -27.3582  -18.3423    6.1610 H   0  0  0  0  0  0  0  0  0  0  0  0
  1  2  1  0
  1  8  1  0
  2  3  1  0
  2  7  1  0
  2  9  1  0
  3  4  1  0
  3 10  1  0
  3 11  1  0
  4  5  1  0
  4 12  1  0
  4 13  1  0
  5  6  1  0
  5 14  1  0
  5 15  1  0
  6  7  1  0
  6 16  1  0
  6 17  1  0
  7 18  1  0
  7 19  1  0
M  END
> <intraLJ>
-0.471    

> <intraEL>
-1.198    

> <intraDihe>
8.631     

> <interLJ>
0.000     

> <interEJ>
0.000     

> <gridLJ>
-2.627    

> <gridEL>
0.000     

> <totalE>
4.335     

> <LGFE>
-2.627  

> <LE>
-0.375  

> <SMILES>
OC1CCCCC1

> <atom.dprop.GFE>
-0.38 -0.44 -0.43 -0.36 -0.33 -0.33 -0.36 0 0 0 0 0 0 0 0 0 0 0 0

> <atom.prop.CLASS>
MEOO PRPC PRPC PRPC PRPC PRPC PRPC NCLA NCLA NCLA NCLA NCLA NCLA NCLA NCLA NCLA NCLA NCLA NCLA

$$$$
34
     RDKit          3D

 19 19  0  0  0  0  0  0  0  0999 V2000
  -22.5882   -8.3673   27.4475 O   0  0  0  0  0  0  0  0  0  0  0  0
  -21.3564   -8.3990   26.7662 C   0  0  0  0  0  0  0  0  0  0  0  0
  -20.6332   -9.7061   27.1092 C   0  0  0  0  0  0  0  0  0  0  0  0
  -19.2284   -9.7431   26.4841 C   0  0  0  0  0  0  0  0  0  0  0  0
  -18.4032   -8.5222   26.9164 C   0  0  0  0  0  0  0  0  0  0  0  0
  -19.1286   -7.2118   26.5751 C   0  0  0  0  0  0  0  0  0  0  0  0
  -20.5306   -7.1851   27.2027 C   0  0  0  0  0  0  0  0  0  0  0  0
  -23.1096   -9.1263   27.1777 H   0  0  0  0  0  0  0  0  0  0  0  0
  -21.5262   -8.3471   25.6883 H   0  0  0  0  0  0  0  0  0  0  0  0
  -21.2136  -10.5514   26.7382 H   0  0  0  0  0  0  0  0  0  0  0  0
  -20.5460   -9.7901   28.1932 H   0  0  0  0  0  0  0  0  0  0  0  0
  -19.3167   -9.7507   25.3954 H   0  0  0  0  0  0  0  0  0  0  0  0
  -18.7171  -10.6547   26.7952 H   0  0  0  0  0  0  0  0  0  0  0  0
  -17.4342   -8.5427   26.4144 H   0  0  0  0  0  0  0  0  0  0  0  0
  -18.2317   -8.5673   27.9937 H   0  0  0  0  0  0  0  0  0  0  0  0
  -19.2148   -7.1169   25.4905 H   0  0  0  0  0  0  0  0  0  0  0  0
  -18.5481   -6.3673   26.9502 H   0  0  0  0  0  0  0  0  0  0  0  0
  -20.4418   -7.1886   28.2905 H   0  0  0  0  0  0  0  0  0  0  0  0
  -21.0487   -6.2743   26.9010 H   0  0  0  0  0  0  0  0  0  0  0  0
  1  2  1  0
  1  8  1  0
  2  3  1  0
  2  7  1  0
  2  9  1  0
  3  4  1  0
  3 10  1  0
  3 11  1  0
  4  5  1  0
  4 12  1  0
  4 13  1  0
  5  6  1  0
  5 14  1  0
  5 15  1  0
  6  7  1  0
  6 16  1  0
  6 17  1  0
  7 18  1  0
  7 19  1  0
M  END
> <intraLJ>
-0.471    

> <intraEL>
-1.198    

> <intraDihe>
8.631     

> <interLJ>
0.000     

> <interEJ>
0.000     

> <gridLJ>
-2.588    

> <gridEL>
0.000     

> <totalE>
4.374     

> <LGFE>
-2.588  

> <LE>
-0.370  

> <SMILES>
OC1CCCCC1

> <atom.dprop.GFE>
-0.49 -0.42 -0.33 -0.29 -0.28 -0.38 -0.4 0 0 0 0 0 0 0 0 0 0 0 0

> <atom.prop.CLASS>
MEOO PRPC PRPC PRPC PRPC PRPC PRPC NCLA NCLA NCLA NCLA NCLA NCLA NCLA NCLA NCLA NCLA NCLA NCLA

$$$$
34
     RDKit          3D

 19 19  0  0  0  0  0  0  0  0999 V2000
   19.8375   -0.9020  -35.8828 O   0  0  0  0  0  0  0  0  0  0  0  0
   21.1751   -0.8216  -36.3151 C   0  0  0  0  0  0  0  0  0  0  0  0
   21.4935    0.6338  -36.6750 C   0  0  0  0  0  0  0  0  0  0  0  0
   22.9081    0.7623  -37.2651 C   0  0  0  0  0  0  0  0  0  0  0  0
   23.0817   -0.1606  -38.4802 C   0  0  0  0  0  0  0  0  0  0  0  0
   22.7603   -1.6192  -38.1206 C   0  0  0  0  0  0  0  0  0  0  0  0
   21.3464   -1.7369  -37.5313 C   0  0  0  0  0  0  0  0  0  0  0  0
   19.7247   -0.3300  -35.1208 H   0  0  0  0  0  0  0  0  0  0  0  0
   21.8440   -1.1561  -35.5188 H   0  0  0  0  0  0  0  0  0  0  0  0
   21.4195    1.2543  -35.7815 H   0  0  0  0  0  0  0  0  0  0  0  0
   20.7659    0.9862  -37.4072 H   0  0  0  0  0  0  0  0  0  0  0  0
   23.6439    0.4962  -36.5028 H   0  0  0  0  0  0  0  0  0  0  0  0
   23.0824    1.7956  -37.5670 H   0  0  0  0  0  0  0  0  0  0  0  0
   24.1089   -0.0936  -38.8432 H   0  0  0  0  0  0  0  0  0  0  0  0
   22.4140    0.1674  -39.2792 H   0  0  0  0  0  0  0  0  0  0  0  0
   23.4884   -1.9821  -37.3919 H   0  0  0  0  0  0  0  0  0  0  0  0
   22.8314   -2.2379  -39.0167 H   0  0  0  0  0  0  0  0  0  0  0  0
   20.6124   -1.4602  -38.2901 H   0  0  0  0  0  0  0  0  0  0  0  0
   21.1607   -2.7683  -37.2303 H   0  0  0  0  0  0  0  0  0  0  0  0
  1  2  1  0
  1  8  1  0
  2  3  1  0
  2  7  1  0
  2  9  1  0
  3  4  1  0
  3 10  1  0
  3 11  1  0
  4  5  1  0
  4 12  1  0
  4 13  1  0
  5  6  1  0
  5 14  1  0
  5 15  1  0
  6  7  1  0
  6 16  1  0
  6 17  1  0
  7 18  1  0
  7 19  1  0
M  END
> <intraLJ>
-0.471    

> <intraEL>
-1.198    

> <intraDihe>
8.631     

> <interLJ>
0.000     

> <interEJ>
0.000     

> <gridLJ>
-2.552    

> <gridEL>
0.000     

> <totalE>
4.410     

> <LGFE>
-2.552  

> <LE>
-0.365  

> <SMILES>
OC1CCCCC1

> <atom.dprop.GFE>
-0.91 -0.29 -0.27 -0.36 -0.25 -0.22 -0.25 0 0 0 0 0 0 0 0 0 0 0 0

> <atom.prop.CLASS>
MEOO PRPC PRPC PRPC PRPC PRPC PRPC NCLA NCLA NCLA NCLA NCLA NCLA NCLA NCLA NCLA NCLA NCLA NCLA

$$$$
34
     RDKit          3D

 19 19  0  0  0  0  0  0  0  0999 V2000
  -28.9973   14.9313   25.5823 O   0  0  0  0  0  0  0  0  0  0  0  0
  -29.7631   15.2526   26.7194 C   0  0  0  0  0  0  0  0  0  0  0  0
  -31.2498   15.1456   26.3627 C   0  0  0  0  0  0  0  0  0  0  0  0
  -32.1354   15.5990   27.5356 C   0  0  0  0  0  0  0  0  0  0  0  0
  -31.7722   17.0238   27.9786 C   0  0  0  0  0  0  0  0  0  0  0  0
  -30.2815   17.1323   28.3339 C   0  0  0  0  0  0  0  0  0  0  0  0
  -29.4057   16.6763   27.1569 C   0  0  0  0  0  0  0  0  0  0  0  0
  -29.2177   14.0400   25.3037 H   0  0  0  0  0  0  0  0  0  0  0  0
  -29.5312   14.5600   27.5317 H   0  0  0  0  0  0  0  0  0  0  0  0
  -31.4901   14.1124   26.1099 H   0  0  0  0  0  0  0  0  0  0  0  0
  -31.4535   15.7746   25.4952 H   0  0  0  0  0  0  0  0  0  0  0  0
  -32.0005   14.9151   28.3766 H   0  0  0  0  0  0  0  0  0  0  0  0
  -33.1824   15.5698   27.2318 H   0  0  0  0  0  0  0  0  0  0  0  0
  -32.3738   17.2985   28.8469 H   0  0  0  0  0  0  0  0  0  0  0  0
  -31.9999   17.7209   27.1699 H   0  0  0  0  0  0  0  0  0  0  0  0
  -30.0702   16.5097   29.2059 H   0  0  0  0  0  0  0  0  0  0  0  0
  -30.0423   18.1675   28.5831 H   0  0  0  0  0  0  0  0  0  0  0  0
  -29.5494   17.3538   26.3134 H   0  0  0  0  0  0  0  0  0  0  0  0
  -28.3558   16.7064   27.4496 H   0  0  0  0  0  0  0  0  0  0  0  0
  1  2  1  0
  1  8  1  0
  2  3  1  0
  2  7  1  0
  2  9  1  0
  3  4  1  0
  3 10  1  0
  3 11  1  0
  4  5  1  0
  4 12  1  0
  4 13  1  0
  5  6  1  0
  5 14  1  0
  5 15  1  0
  6  7  1  0
  6 16  1  0
  6 17  1  0
  7 18  1  0
  7 19  1  0
M  END
> <intraLJ>
-0.471    

> <intraEL>
-1.198    

> <intraDihe>
8.631     

> <interLJ>
0.000     

> <interEJ>
0.000     

> <gridLJ>
-2.494    

> <gridEL>
0.000     

> <totalE>
4.467     

> <LGFE>
-2.494  

> <LE>
-0.356  

> <SMILES>
OC1CCCCC1

> <atom.dprop.GFE>
-0.97 -0.2 -0.16 -0.31 -0.28 -0.31 -0.28 0 0 0 0 0 0 0 0 0 0 0 0

> <atom.prop.CLASS>
MEOO PRPC PRPC PRPC PRPC PRPC PRPC NCLA NCLA NCLA NCLA NCLA NCLA NCLA NCLA NCLA NCLA NCLA NCLA

$$$$
34
     RDKit          3D

 19 19  0  0  0  0  0  0  0  0999 V2000
   10.3165   -9.9099  -30.7380 O   0  0  0  0  0  0  0  0  0  0  0  0
   10.7182   -9.2630  -29.5536 C   0  0  0  0  0  0  0  0  0  0  0  0
   12.2253   -9.4670  -29.3636 C   0  0  0  0  0  0  0  0  0  0  0  0
   12.6996   -8.8800  -28.0234 C   0  0  0  0  0  0  0  0  0  0  0  0
   11.9067   -9.4769  -26.8515 C   0  0  0  0  0  0  0  0  0  0  0  0
   10.3959   -9.2749  -27.0427 C   0  0  0  0  0  0  0  0  0  0  0  0
    9.9323   -9.8634  -28.3839 C   0  0  0  0  0  0  0  0  0  0  0  0
   10.8063   -9.5375  -31.4742 H   0  0  0  0  0  0  0  0  0  0  0  0
   10.4994   -8.1949  -29.6207 H   0  0  0  0  0  0  0  0  0  0  0  0
   12.7638   -8.9824  -30.1785 H   0  0  0  0  0  0  0  0  0  0  0  0
   12.4449  -10.5352  -29.3853 H   0  0  0  0  0  0  0  0  0  0  0  0
   12.5642   -7.7961  -28.0348 H   0  0  0  0  0  0  0  0  0  0  0  0
   13.7606   -9.0937  -27.8893 H   0  0  0  0  0  0  0  0  0  0  0  0
   12.2220   -9.0023  -25.9206 H   0  0  0  0  0  0  0  0  0  0  0  0
   12.1197  -10.5453  -26.7805 H   0  0  0  0  0  0  0  0  0  0  0  0
   10.1664   -8.2075  -27.0161 H   0  0  0  0  0  0  0  0  0  0  0  0
    9.8586   -9.7636  -26.2282 H   0  0  0  0  0  0  0  0  0  0  0  0
   10.0782  -10.9450  -28.3759 H   0  0  0  0  0  0  0  0  0  0  0  0
    8.8707   -9.6587  -28.5253 H   0  0  0  0  0  0  0  0  0  0  0  0
  1  2  1  0
  1  8  1  0
  2  3  1  0
  2  7  1  0
  2  9  1  0
  3  4  1  0
  3 10  1  0
  3 11  1  0
  4  5  1  0
  4 12  1  0
  4 13  1  0
  5  6  1  0
  5 14  1  0
  5 15  1  0
  6  7  1  0
  6 16  1  0
  6 17  1  0
  7 18  1  0
  7 19  1  0
M  END
> <intraLJ>
-0.471    

> <intraEL>
-1.198    

> <intraDihe>
8.631     

> <interLJ>
0.000     

> <interEJ>
0.000     

> <gridLJ>
-2.487    

> <gridEL>
0.000     

> <totalE>
4.475     

> <LGFE>
-2.487  

> <LE>
-0.355  

> <SMILES>
OC1CCCCC1

> <atom.dprop.GFE>
-0.42 -0.29 -0.35 -0.39 -0.33 -0.33 -0.39 0 0 0 0 0 0 0 0 0 0 0 0

> <atom.prop.CLASS>
MEOO PRPC PRPC PRPC PRPC PRPC PRPC NCLA NCLA NCLA NCLA NCLA NCLA NCLA NCLA NCLA NCLA NCLA NCLA

$$$$
34
     RDKit          3D

 19 19  0  0  0  0  0  0  0  0999 V2000
   18.0735   -7.5958  -22.5126 O   0  0  0  0  0  0  0  0  0  0  0  0
   17.8409   -6.4105  -23.2361 C   0  0  0  0  0  0  0  0  0  0  0  0
   16.5484   -5.7636  -22.7263 C   0  0  0  0  0  0  0  0  0  0  0  0
   16.1819   -4.5246  -23.5607 C   0  0  0  0  0  0  0  0  0  0  0  0
   16.0748   -4.8789  -25.0511 C   0  0  0  0  0  0  0  0  0  0  0  0
   17.3692   -5.5296  -25.5621 C   0  0  0  0  0  0  0  0  0  0  0  0
   17.7272   -6.7649  -24.7219 C   0  0  0  0  0  0  0  0  0  0  0  0
   18.1453   -7.3794  -21.5806 H   0  0  0  0  0  0  0  0  0  0  0  0
   18.6755   -5.7196  -23.0961 H   0  0  0  0  0  0  0  0  0  0  0  0
   16.6749   -5.4698  -21.6839 H   0  0  0  0  0  0  0  0  0  0  0  0
   15.7381   -6.4910  -22.7891 H   0  0  0  0  0  0  0  0  0  0  0  0
   16.9488   -3.7583  -23.4270 H   0  0  0  0  0  0  0  0  0  0  0  0
   15.2290   -4.1232  -23.2143 H   0  0  0  0  0  0  0  0  0  0  0  0
   15.8717   -3.9735  -25.6258 H   0  0  0  0  0  0  0  0  0  0  0  0
   15.2434   -5.5711  -25.1973 H   0  0  0  0  0  0  0  0  0  0  0  0
   18.1850   -4.8054  -25.5083 H   0  0  0  0  0  0  0  0  0  0  0  0
   17.2394   -5.8261  -26.6043 H   0  0  0  0  0  0  0  0  0  0  0  0
   16.9550   -7.5258  -24.8474 H   0  0  0  0  0  0  0  0  0  0  0  0
   18.6772   -7.1766  -25.0639 H   0  0  0  0  0  0  0  0  0  0  0  0
  1  2  1  0
  1  8  1  0
  2  3  1  0
  2  7  1  0
  2  9  1  0
  3  4  1  0
  3 10  1  0
  3 11  1  0
  4  5  1  0
  4 12  1  0
  4 13  1  0
  5  6  1  0
  5 14  1  0
  5 15  1  0
  6  7  1  0
  6 16  1  0
  6 17  1  0
  7 18  1  0
  7 19  1  0
M  END
> <intraLJ>
-0.471    

> <intraEL>
-1.198    

> <intraDihe>
8.631     

> <interLJ>
0.000     

> <interEJ>
0.000     

> <gridLJ>
-2.470    

> <gridEL>
0.000     

> <totalE>
4.491     

> <LGFE>
-2.470  

> <LE>
-0.353  

> <SMILES>
OC1CCCCC1

> <atom.dprop.GFE>
-0.3 -0.26 -0.38 -0.34 -0.43 -0.4 -0.36 0 0 0 0 0 0 0 0 0 0 0 0

> <atom.prop.CLASS>
MEOO PRPC PRPC PRPC PRPC PRPC PRPC NCLA NCLA NCLA NCLA NCLA NCLA NCLA NCLA NCLA NCLA NCLA NCLA

$$$$
34
     RDKit          3D

 19 19  0  0  0  0  0  0  0  0999 V2000
   17.4301    6.0037  -49.4788 O   0  0  0  0  0  0  0  0  0  0  0  0
   18.1127    4.8925  -48.9481 C   0  0  0  0  0  0  0  0  0  0  0  0
   19.4513    4.7372  -49.6784 C   0  0  0  0  0  0  0  0  0  0  0  0
   20.1894    3.4683  -49.2195 C   0  0  0  0  0  0  0  0  0  0  0  0
   19.3086    2.2240  -49.4046 C   0  0  0  0  0  0  0  0  0  0  0  0
   17.9659    2.3800  -48.6748 C   0  0  0  0  0  0  0  0  0  0  0  0
   17.2371    3.6503  -49.1390 C   0  0  0  0  0  0  0  0  0  0  0  0
   17.9747    6.7850  -49.3620 H   0  0  0  0  0  0  0  0  0  0  0  0
   18.2935    5.0420  -47.8812 H   0  0  0  0  0  0  0  0  0  0  0  0
   20.0770    5.6080  -49.4805 H   0  0  0  0  0  0  0  0  0  0  0  0
   19.2657    4.6762  -50.7515 H   0  0  0  0  0  0  0  0  0  0  0  0
   20.4569    3.5665  -48.1650 H   0  0  0  0  0  0  0  0  0  0  0  0
   21.1062    3.3528  -49.7986 H   0  0  0  0  0  0  0  0  0  0  0  0
   19.8325    1.3477  -49.0185 H   0  0  0  0  0  0  0  0  0  0  0  0
   19.1226    2.0703  -50.4693 H   0  0  0  0  0  0  0  0  0  0  0  0
   18.1423    2.4358  -47.5984 H   0  0  0  0  0  0  0  0  0  0  0  0
   17.3397    1.5093  -48.8769 H   0  0  0  0  0  0  0  0  0  0  0  0
   16.9800    3.5560  -50.1955 H   0  0  0  0  0  0  0  0  0  0  0  0
   16.3160    3.7722  -48.5685 H   0  0  0  0  0  0  0  0  0  0  0  0
  1  2  1  0
  1  8  1  0
  2  3  1  0
  2  7  1  0
  2  9  1  0
  3  4  1  0
  3 10  1  0
  3 11  1  0
  4  5  1  0
  4 12  1  0
  4 13  1  0
  5  6  1  0
  5 14  1  0
  5 15  1  0
  6  7  1  0
  6 16  1  0
  6 17  1  0
  7 18  1  0
  7 19  1  0
M  END
> <intraLJ>
-0.471    

> <intraEL>
-1.198    

> <intraDihe>
8.631     

> <interLJ>
0.000     

> <interEJ>
0.000     

> <gridLJ>
-2.460    

> <gridEL>
0.000     

> <totalE>
4.502     

> <LGFE>
-2.460  

> <LE>
-0.351  

> <SMILES>
OC1CCCCC1

> <atom.dprop.GFE>
-0.23 -0.41 -0.39 -0.37 -0.39 -0.34 -0.33 0 0 0 0 0 0 0 0 0 0 0 0

> <atom.prop.CLASS>
MEOO PRPC PRPC PRPC PRPC PRPC PRPC NCLA NCLA NCLA NCLA NCLA NCLA NCLA NCLA NCLA NCLA NCLA NCLA

$$$$
34
     RDKit          3D

 19 19  0  0  0  0  0  0  0  0999 V2000
    8.3484   -4.8531  -15.7410 O   0  0  0  0  0  0  0  0  0  0  0  0
    9.1873   -4.8963  -14.6110 C   0  0  0  0  0  0  0  0  0  0  0  0
   10.4583   -5.6756  -14.9662 C   0  0  0  0  0  0  0  0  0  0  0  0
   11.3612   -5.8551  -13.7341 C   0  0  0  0  0  0  0  0  0  0  0  0
   10.5966   -6.5332  -12.5877 C   0  0  0  0  0  0  0  0  0  0  0  0
    9.3213   -5.7538  -12.2329 C   0  0  0  0  0  0  0  0  0  0  0  0
    8.4271   -5.5788  -13.4698 C   0  0  0  0  0  0  0  0  0  0  0  0
    8.8202   -4.4264  -16.4594 H   0  0  0  0  0  0  0  0  0  0  0  0
    9.4537   -3.8815  -14.3067 H   0  0  0  0  0  0  0  0  0  0  0  0
   11.0093   -5.1402  -15.7401 H   0  0  0  0  0  0  0  0  0  0  0  0
   10.1777   -6.6567  -15.3515 H   0  0  0  0  0  0  0  0  0  0  0  0
   11.7174   -4.8778  -13.4008 H   0  0  0  0  0  0  0  0  0  0  0  0
   12.2251   -6.4638  -14.0033 H   0  0  0  0  0  0  0  0  0  0  0  0
   11.2408   -6.5958  -11.7088 H   0  0  0  0  0  0  0  0  0  0  0  0
   10.3257   -7.5476  -12.8867 H   0  0  0  0  0  0  0  0  0  0  0  0
    9.5937   -4.7717  -11.8403 H   0  0  0  0  0  0  0  0  0  0  0  0
    8.7695   -6.2929  -11.4609 H   0  0  0  0  0  0  0  0  0  0  0  0
    8.0805   -6.5566  -13.8088 H   0  0  0  0  0  0  0  0  0  0  0  0
    7.5574   -4.9749  -13.2095 H   0  0  0  0  0  0  0  0  0  0  0  0
  1  2  1  0
  1  8  1  0
  2  3  1  0
  2  7  1  0
  2  9  1  0
  3  4  1  0
  3 10  1  0
  3 11  1  0
  4  5  1  0
  4 12  1  0
  4 13  1  0
  5  6  1  0
  5 14  1  0
  5 15  1  0
  6  7  1  0
  6 16  1  0
  6 17  1  0
  7 18  1  0
  7 19  1  0
M  END
> <intraLJ>
-0.471    

> <intraEL>
-1.198    

> <intraDihe>
8.631     

> <interLJ>
0.000     

> <interEJ>
0.000     

> <gridLJ>
-2.464    

> <gridEL>
0.000     

> <totalE>
4.498     

> <LGFE>
-2.464  

> <LE>
-0.352  

> <SMILES>
OC1CCCCC1

> <atom.dprop.GFE>
-0.87 -0.18 -0.26 -0.3 -0.28 -0.33 -0.24 0 0 0 0 0 0 0 0 0 0 0 0

> <atom.prop.CLASS>
MEOO PRPC PRPC PRPC PRPC PRPC PRPC NCLA NCLA NCLA NCLA NCLA NCLA NCLA NCLA NCLA NCLA NCLA NCLA

$$$$
34
     RDKit          3D

 19 19  0  0  0  0  0  0  0  0999 V2000
  -16.0846   -6.6843   -6.9024 O   0  0  0  0  0  0  0  0  0  0  0  0
  -16.4354   -8.0080   -7.2301 C   0  0  0  0  0  0  0  0  0  0  0  0
  -15.1737   -8.8777   -7.1992 C   0  0  0  0  0  0  0  0  0  0  0  0
  -15.4776  -10.3121   -7.6634 C   0  0  0  0  0  0  0  0  0  0  0  0
  -16.1182  -10.3131   -9.0591 C   0  0  0  0  0  0  0  0  0  0  0  0
  -17.3815   -9.4395   -9.0913 C   0  0  0  0  0  0  0  0  0  0  0  0
  -17.0680   -8.0097   -8.6251 C   0  0  0  0  0  0  0  0  0  0  0  0
  -15.6874   -6.6776   -6.0290 H   0  0  0  0  0  0  0  0  0  0  0  0
  -17.1606   -8.3901   -6.5081 H   0  0  0  0  0  0  0  0  0  0  0  0
  -14.7755   -8.9055   -6.1845 H   0  0  0  0  0  0  0  0  0  0  0  0
  -14.4232   -8.4387   -7.8579 H   0  0  0  0  0  0  0  0  0  0  0  0
  -16.1599  -10.7854   -6.9538 H   0  0  0  0  0  0  0  0  0  0  0  0
  -14.5522  -10.8886   -7.6891 H   0  0  0  0  0  0  0  0  0  0  0  0
  -16.3763  -11.3359   -9.3395 H   0  0  0  0  0  0  0  0  0  0  0  0
  -15.3987   -9.9301   -9.7853 H   0  0  0  0  0  0  0  0  0  0  0  0
  -18.1408   -9.8757   -8.4387 H   0  0  0  0  0  0  0  0  0  0  0  0
  -17.7765   -9.4101  -10.1082 H   0  0  0  0  0  0  0  0  0  0  0  0
  -16.3776   -7.5413   -9.3287 H   0  0  0  0  0  0  0  0  0  0  0  0
  -17.9871   -7.4236   -8.6005 H   0  0  0  0  0  0  0  0  0  0  0  0
  1  2  1  0
  1  8  1  0
  2  3  1  0
  2  7  1  0
  2  9  1  0
  3  4  1  0
  3 10  1  0
  3 11  1  0
  4  5  1  0
  4 12  1  0
  4 13  1  0
  5  6  1  0
  5 14  1  0
  5 15  1  0
  6  7  1  0
  6 16  1  0
  6 17  1  0
  7 18  1  0
  7 19  1  0
M  END
> <intraLJ>
-0.471    

> <intraEL>
-1.198    

> <intraDihe>
8.631     

> <interLJ>
0.000     

> <interEJ>
0.000     

> <gridLJ>
-2.451    

> <gridEL>
0.000     

> <totalE>
4.511     

> <LGFE>
-2.451  

> <LE>
-0.350  

> <SMILES>
OC1CCCCC1

> <atom.dprop.GFE>
-1.4 -0.15 -0.18 -0.14 -0.22 -0.21 -0.15 0 0 0 0 0 0 0 0 0 0 0 0

> <atom.prop.CLASS>
MEOO PRPC PRPC PRPC PRPC PRPC PRPC NCLA NCLA NCLA NCLA NCLA NCLA NCLA NCLA NCLA NCLA NCLA NCLA

$$$$
34
     RDKit          3D

 19 19  0  0  0  0  0  0  0  0999 V2000
  -38.0331    8.5627   15.4430 O   0  0  0  0  0  0  0  0  0  0  0  0
  -36.6311    8.5345   15.5704 C   0  0  0  0  0  0  0  0  0  0  0  0
  -36.0756    9.9262   15.2481 C   0  0  0  0  0  0  0  0  0  0  0  0
  -34.5376    9.9251   15.2577 C   0  0  0  0  0  0  0  0  0  0  0  0
  -33.9836    8.8687   14.2905 C   0  0  0  0  0  0  0  0  0  0  0  0
  -34.5419    7.4740   14.6116 C   0  0  0  0  0  0  0  0  0  0  0  0
  -36.0781    7.4857   14.6006 C   0  0  0  0  0  0  0  0  0  0  0  0
  -38.3848    9.2187   16.0485 H   0  0  0  0  0  0  0  0  0  0  0  0
  -36.3560    8.2584   16.5909 H   0  0  0  0  0  0  0  0  0  0  0  0
  -36.4387   10.6428   15.9854 H   0  0  0  0  0  0  0  0  0  0  0  0
  -36.4281   10.2299   14.2615 H   0  0  0  0  0  0  0  0  0  0  0  0
  -34.1820    9.7100   16.2679 H   0  0  0  0  0  0  0  0  0  0  0  0
  -34.1726   10.9104   14.9660 H   0  0  0  0  0  0  0  0  0  0  0  0
  -32.8944    8.8489   14.3595 H   0  0  0  0  0  0  0  0  0  0  0  0
  -34.2571    9.1381   13.2686 H   0  0  0  0  0  0  0  0  0  0  0  0
  -34.1885    7.1596   15.5959 H   0  0  0  0  0  0  0  0  0  0  0  0
  -34.1803    6.7590   13.8707 H   0  0  0  0  0  0  0  0  0  0  0  0
  -36.4325    7.7115   13.5934 H   0  0  0  0  0  0  0  0  0  0  0  0
  -36.4531    6.5027   14.8869 H   0  0  0  0  0  0  0  0  0  0  0  0
  1  2  1  0
  1  8  1  0
  2  3  1  0
  2  7  1  0
  2  9  1  0
  3  4  1  0
  3 10  1  0
  3 11  1  0
  4  5  1  0
  4 12  1  0
  4 13  1  0
  5  6  1  0
  5 14  1  0
  5 15  1  0
  6  7  1  0
  6 16  1  0
  6 17  1  0
  7 18  1  0
  7 19  1  0
M  END
> <intraLJ>
-0.471    

> <intraEL>
-1.198    

> <intraDihe>
8.631     

> <interLJ>
0.000     

> <interEJ>
0.000     

> <gridLJ>
-2.390    

> <gridEL>
0.000     

> <totalE>
4.572     

> <LGFE>
-2.390  

> <LE>
-0.341  

> <SMILES>
OC1CCCCC1

> <atom.dprop.GFE>
-0.41 -0.22 -0.39 -0.39 -0.34 -0.29 -0.35 0 0 0 0 0 0 0 0 0 0 0 0

> <atom.prop.CLASS>
MEOO PRPC PRPC PRPC PRPC PRPC PRPC NCLA NCLA NCLA NCLA NCLA NCLA NCLA NCLA NCLA NCLA NCLA NCLA

$$$$
34
     RDKit          3D

 19 19  0  0  0  0  0  0  0  0999 V2000
  -41.0055    6.7474   32.2542 O   0  0  0  0  0  0  0  0  0  0  0  0
  -40.9577    5.9348   31.1053 C   0  0  0  0  0  0  0  0  0  0  0  0
  -39.7616    4.9833   31.2200 C   0  0  0  0  0  0  0  0  0  0  0  0
  -39.5910    4.1502   29.9385 C   0  0  0  0  0  0  0  0  0  0  0  0
  -39.4615    5.0583   28.7069 C   0  0  0  0  0  0  0  0  0  0  0  0
  -40.6589    6.0139   28.5927 C   0  0  0  0  0  0  0  0  0  0  0  0
  -40.8216    6.8404   29.8775 C   0  0  0  0  0  0  0  0  0  0  0  0
  -41.0905    6.1847   33.0268 H   0  0  0  0  0  0  0  0  0  0  0  0
  -41.8796    5.3549   31.0215 H   0  0  0  0  0  0  0  0  0  0  0  0
  -39.9098    4.3128   32.0671 H   0  0  0  0  0  0  0  0  0  0  0  0
  -38.8570    5.5684   31.3908 H   0  0  0  0  0  0  0  0  0  0  0  0
  -40.4568    3.4960   29.8140 H   0  0  0  0  0  0  0  0  0  0  0  0
  -38.6990    3.5290   30.0260 H   0  0  0  0  0  0  0  0  0  0  0  0
  -39.4002    4.4433   27.8072 H   0  0  0  0  0  0  0  0  0  0  0  0
  -38.5426    5.6424   28.7857 H   0  0  0  0  0  0  0  0  0  0  0  0
  -41.5686    5.4361   28.4154 H   0  0  0  0  0  0  0  0  0  0  0  0
  -40.5071    6.6864   27.7467 H   0  0  0  0  0  0  0  0  0  0  0  0
  -39.9510    7.4858   30.0069 H   0  0  0  0  0  0  0  0  0  0  0  0
  -41.7091    7.4688   29.7978 H   0  0  0  0  0  0  0  0  0  0  0  0
  1  2  1  0
  1  8  1  0
  2  3  1  0
  2  7  1  0
  2  9  1  0
  3  4  1  0
  3 10  1  0
  3 11  1  0
  4  5  1  0
  4 12  1  0
  4 13  1  0
  5  6  1  0
  5 14  1  0
  5 15  1  0
  6  7  1  0
  6 16  1  0
  6 17  1  0
  7 18  1  0
  7 19  1  0
M  END
> <intraLJ>
-0.471    

> <intraEL>
-1.198    

> <intraDihe>
8.631     

> <interLJ>
0.000     

> <interEJ>
0.000     

> <gridLJ>
-2.318    

> <gridEL>
0.000     

> <totalE>
4.644     

> <LGFE>
-2.318  

> <LE>
-0.331  

> <SMILES>
OC1CCCCC1

> <atom.dprop.GFE>
-0.17 -0.29 -0.35 -0.44 -0.41 -0.36 -0.3 0 0 0 0 0 0 0 0 0 0 0 0

> <atom.prop.CLASS>
MEOO PRPC PRPC PRPC PRPC PRPC PRPC NCLA NCLA NCLA NCLA NCLA NCLA NCLA NCLA NCLA NCLA NCLA NCLA

$$$$
34
     RDKit          3D

 19 19  0  0  0  0  0  0  0  0999 V2000
   -9.1727   -6.6708   10.1616 O   0  0  0  0  0  0  0  0  0  0  0  0
   -9.5057   -5.3195   10.3755 C   0  0  0  0  0  0  0  0  0  0  0  0
   -8.4097   -4.6669   11.2251 C   0  0  0  0  0  0  0  0  0  0  0  0
   -8.7785   -3.2187   11.5887 C   0  0  0  0  0  0  0  0  0  0  0  0
  -10.1391   -3.1606   12.2984 C   0  0  0  0  0  0  0  0  0  0  0  0
  -11.2377   -3.8168   11.4484 C   0  0  0  0  0  0  0  0  0  0  0  0
  -10.8596   -5.2620   11.0896 C   0  0  0  0  0  0  0  0  0  0  0  0
   -8.3248   -6.7125    9.7146 H   0  0  0  0  0  0  0  0  0  0  0  0
   -9.5842   -4.7999    9.4179 H   0  0  0  0  0  0  0  0  0  0  0  0
   -7.4700   -4.6700   10.6718 H   0  0  0  0  0  0  0  0  0  0  0  0
   -8.2785   -5.2446   12.1409 H   0  0  0  0  0  0  0  0  0  0  0  0
   -8.8213   -2.6165   10.6783 H   0  0  0  0  0  0  0  0  0  0  0  0
   -8.0110   -2.8022   12.2420 H   0  0  0  0  0  0  0  0  0  0  0  0
  -10.4031   -2.1195   12.4928 H   0  0  0  0  0  0  0  0  0  0  0  0
  -10.0677   -3.6804   13.2558 H   0  0  0  0  0  0  0  0  0  0  0  0
  -11.3797   -3.2407   10.5315 H   0  0  0  0  0  0  0  0  0  0  0  0
  -12.1763   -3.8160   12.0051 H   0  0  0  0  0  0  0  0  0  0  0  0
  -10.8062   -5.8604   12.0008 H   0  0  0  0  0  0  0  0  0  0  0  0
  -11.6239   -5.6890   10.4397 H   0  0  0  0  0  0  0  0  0  0  0  0
  1  2  1  0
  1  8  1  0
  2  3  1  0
  2  7  1  0
  2  9  1  0
  3  4  1  0
  3 10  1  0
  3 11  1  0
  4  5  1  0
  4 12  1  0
  4 13  1  0
  5  6  1  0
  5 14  1  0
  5 15  1  0
  6  7  1  0
  6 16  1  0
  6 17  1  0
  7 18  1  0
  7 19  1  0
M  END
> <intraLJ>
-0.471    

> <intraEL>
-1.198    

> <intraDihe>
8.631     

> <interLJ>
0.000     

> <interEJ>
0.000     

> <gridLJ>
-2.315    

> <gridEL>
0.000     

> <totalE>
4.646     

> <LGFE>
-2.315  

> <LE>
-0.331  

> <SMILES>
OC1CCCCC1

> <atom.dprop.GFE>
-0.71 -0.32 -0.26 -0.26 -0.27 -0.26 -0.22 0 0 0 0 0 0 0 0 0 0 0 0

> <atom.prop.CLASS>
MEOO PRPC PRPC PRPC PRPC PRPC PRPC NCLA NCLA NCLA NCLA NCLA NCLA NCLA NCLA NCLA NCLA NCLA NCLA

$$$$
34
     RDKit          3D

 19 19  0  0  0  0  0  0  0  0999 V2000
    2.9562    1.1214  -37.7702 O   0  0  0  0  0  0  0  0  0  0  0  0
    2.0355    0.9613  -38.8234 C   0  0  0  0  0  0  0  0  0  0  0  0
    1.1631    2.2181  -38.9151 C   0  0  0  0  0  0  0  0  0  0  0  0
    0.0606    2.0516  -39.9746 C   0  0  0  0  0  0  0  0  0  0  0  0
   -0.7901    0.8051  -39.6901 C   0  0  0  0  0  0  0  0  0  0  0  0
    0.0841   -0.4546  -39.5956 C   0  0  0  0  0  0  0  0  0  0  0  0
    1.1824   -0.2781  -38.5360 C   0  0  0  0  0  0  0  0  0  0  0  0
    3.4933    1.8970  -37.9452 H   0  0  0  0  0  0  0  0  0  0  0  0
    2.5695    0.8173  -39.7654 H   0  0  0  0  0  0  0  0  0  0  0  0
    1.7852    3.0748  -39.1758 H   0  0  0  0  0  0  0  0  0  0  0  0
    0.7024    2.4027  -37.9438 H   0  0  0  0  0  0  0  0  0  0  0  0
    0.5185    1.9574  -40.9618 H   0  0  0  0  0  0  0  0  0  0  0  0
   -0.5791    2.9348  -39.9738 H   0  0  0  0  0  0  0  0  0  0  0  0
   -1.5258    0.6782  -40.4863 H   0  0  0  0  0  0  0  0  0  0  0  0
   -1.3250    0.9421  -38.7483 H   0  0  0  0  0  0  0  0  0  0  0  0
    0.5446   -0.6502  -40.5664 H   0  0  0  0  0  0  0  0  0  0  0  0
   -0.5396   -1.3101  -39.3311 H   0  0  0  0  0  0  0  0  0  0  0  0
    0.7237   -0.1730  -37.5513 H   0  0  0  0  0  0  0  0  0  0  0  0
    1.8252   -1.1588  -38.5259 H   0  0  0  0  0  0  0  0  0  0  0  0
  1  2  1  0
  1  8  1  0
  2  3  1  0
  2  7  1  0
  2  9  1  0
  3  4  1  0
  3 10  1  0
  3 11  1  0
  4  5  1  0
  4 12  1  0
  4 13  1  0
  5  6  1  0
  5 14  1  0
  5 15  1  0
  6  7  1  0
  6 16  1  0
  6 17  1  0
  7 18  1  0
  7 19  1  0
M  END
> <intraLJ>
-0.471    

> <intraEL>
-1.198    

> <intraDihe>
8.631     

> <interLJ>
0.000     

> <interEJ>
0.000     

> <gridLJ>
-2.282    

> <gridEL>
0.000     

> <totalE>
4.680     

> <LGFE>
-2.282  

> <LE>
-0.326  

> <SMILES>
OC1CCCCC1

> <atom.dprop.GFE>
-0.96 -0.4 -0.32 -0.15 -0.075 -0.15 -0.24 0 0 0 0 0 0 0 0 0 0 0 0

> <atom.prop.CLASS>
MEOO PRPC PRPC PRPC PRPC PRPC PRPC NCLA NCLA NCLA NCLA NCLA NCLA NCLA NCLA NCLA NCLA NCLA NCLA

$$$$
34
     RDKit          3D

 19 19  0  0  0  0  0  0  0  0999 V2000
   13.0855   15.1788  -29.5953 O   0  0  0  0  0  0  0  0  0  0  0  0
   14.4206   15.5074  -29.2919 C   0  0  0  0  0  0  0  0  0  0  0  0
   14.4391   16.4243  -28.0638 C   0  0  0  0  0  0  0  0  0  0  0  0
   15.8655   16.9102  -27.7561 C   0  0  0  0  0  0  0  0  0  0  0  0
   16.4836   17.6062  -28.9776 C   0  0  0  0  0  0  0  0  0  0  0  0
   16.4631   16.6885  -30.2095 C   0  0  0  0  0  0  0  0  0  0  0  0
   15.0348   16.2078  -30.5078 C   0  0  0  0  0  0  0  0  0  0  0  0
   12.6957   14.7398  -28.8363 H   0  0  0  0  0  0  0  0  0  0  0  0
   14.9879   14.5986  -29.0783 H   0  0  0  0  0  0  0  0  0  0  0  0
   14.0498   15.8840  -27.2004 H   0  0  0  0  0  0  0  0  0  0  0  0
   13.7994   17.2869  -28.2546 H   0  0  0  0  0  0  0  0  0  0  0  0
   16.4864   16.0562  -27.4759 H   0  0  0  0  0  0  0  0  0  0  0  0
   15.8382   17.6068  -26.9175 H   0  0  0  0  0  0  0  0  0  0  0  0
   17.5134   17.8888  -28.7520 H   0  0  0  0  0  0  0  0  0  0  0  0
   15.9195   18.5146  -29.1975 H   0  0  0  0  0  0  0  0  0  0  0  0
   17.1064   15.8246  -30.0290 H   0  0  0  0  0  0  0  0  0  0  0  0
   16.8497   17.2320  -31.0733 H   0  0  0  0  0  0  0  0  0  0  0  0
   14.4124   17.0630  -30.7770 H   0  0  0  0  0  0  0  0  0  0  0  0
   15.0510   15.5137  -31.3485 H   0  0  0  0  0  0  0  0  0  0  0  0
  1  2  1  0
  1  8  1  0
  2  3  1  0
  2  7  1  0
  2  9  1  0
  3  4  1  0
  3 10  1  0
  3 11  1  0
  4  5  1  0
  4 12  1  0
  4 13  1  0
  5  6  1  0
  5 14  1  0
  5 15  1  0
  6  7  1  0
  6 16  1  0
  6 17  1  0
  7 18  1  0
  7 19  1  0
M  END
> <intraLJ>
-0.471    

> <intraEL>
-1.198    

> <intraDihe>
8.631     

> <interLJ>
0.000     

> <interEJ>
0.000     

> <gridLJ>
-2.277    

> <gridEL>
0.000     

> <totalE>
4.685     

> <LGFE>
-2.277  

> <LE>
-0.325  

> <SMILES>
OC1CCCCC1

> <atom.dprop.GFE>
-0.84 -0.37 -0.27 -0.27 -0.13 -0.17 -0.23 0 0 0 0 0 0 0 0 0 0 0 0

> <atom.prop.CLASS>
MEOO PRPC PRPC PRPC PRPC PRPC PRPC NCLA NCLA NCLA NCLA NCLA NCLA NCLA NCLA NCLA NCLA NCLA NCLA

$$$$
34
     RDKit          3D

 19 19  0  0  0  0  0  0  0  0999 V2000
    7.4824   15.4077   -1.3405 O   0  0  0  0  0  0  0  0  0  0  0  0
    8.4789   16.3556   -1.6423 C   0  0  0  0  0  0  0  0  0  0  0  0
    8.9388   16.1482   -3.0896 C   0  0  0  0  0  0  0  0  0  0  0  0
   10.1105   17.0816   -3.4382 C   0  0  0  0  0  0  0  0  0  0  0  0
   11.2739   16.8928   -2.4537 C   0  0  0  0  0  0  0  0  0  0  0  0
   10.8131   17.0981   -1.0027 C   0  0  0  0  0  0  0  0  0  0  0  0
    9.6422   16.1626   -0.6648 C   0  0  0  0  0  0  0  0  0  0  0  0
    6.7510   15.5241   -1.9505 H   0  0  0  0  0  0  0  0  0  0  0  0
    8.0786   17.3654   -1.5270 H   0  0  0  0  0  0  0  0  0  0  0  0
    8.1080   16.3465   -3.7675 H   0  0  0  0  0  0  0  0  0  0  0  0
    9.2551   15.1122   -3.2171 H   0  0  0  0  0  0  0  0  0  0  0  0
    9.7708   18.1191   -3.3994 H   0  0  0  0  0  0  0  0  0  0  0  0
   10.4546   16.8688   -4.4509 H   0  0  0  0  0  0  0  0  0  0  0  0
   12.0667   17.6057   -2.6876 H   0  0  0  0  0  0  0  0  0  0  0  0
   11.6772   15.8842   -2.5628 H   0  0  0  0  0  0  0  0  0  0  0  0
   10.5001   18.1353   -0.8648 H   0  0  0  0  0  0  0  0  0  0  0  0
   11.6448   16.8958   -0.3258 H   0  0  0  0  0  0  0  0  0  0  0  0
    9.9796   15.1258   -0.7145 H   0  0  0  0  0  0  0  0  0  0  0  0
    9.2938   16.3647    0.3484 H   0  0  0  0  0  0  0  0  0  0  0  0
  1  2  1  0
  1  8  1  0
  2  3  1  0
  2  7  1  0
  2  9  1  0
  3  4  1  0
  3 10  1  0
  3 11  1  0
  4  5  1  0
  4 12  1  0
  4 13  1  0
  5  6  1  0
  5 14  1  0
  5 15  1  0
  6  7  1  0
  6 16  1  0
  6 17  1  0
  7 18  1  0
  7 19  1  0
M  END
> <intraLJ>
-0.471    

> <intraEL>
-1.198    

> <intraDihe>
8.631     

> <interLJ>
0.000     

> <interEJ>
0.000     

> <gridLJ>
-2.234    

> <gridEL>
0.000     

> <totalE>
4.728     

> <LGFE>
-2.234  

> <LE>
-0.319  

> <SMILES>
OC1CCCCC1

> <atom.dprop.GFE>
-0.49 -0.25 -0.21 -0.34 -0.35 -0.33 -0.26 0 0 0 0 0 0 0 0 0 0 0 0

> <atom.prop.CLASS>
MEOO PRPC PRPC PRPC PRPC PRPC PRPC NCLA NCLA NCLA NCLA NCLA NCLA NCLA NCLA NCLA NCLA NCLA NCLA

$$$$
34
     RDKit          3D

 19 19  0  0  0  0  0  0  0  0999 V2000
  -24.5579   -4.2604   31.4744 O   0  0  0  0  0  0  0  0  0  0  0  0
  -25.7824   -4.4154   30.7968 C   0  0  0  0  0  0  0  0  0  0  0  0
  -26.6347   -3.1611   31.0190 C   0  0  0  0  0  0  0  0  0  0  0  0
  -28.0322   -3.3231   30.3974 C   0  0  0  0  0  0  0  0  0  0  0  0
  -28.7341   -4.5749   30.9440 C   0  0  0  0  0  0  0  0  0  0  0  0
  -27.8792   -5.8321   30.7238 C   0  0  0  0  0  0  0  0  0  0  0  0
  -26.4856   -5.6601   31.3469 C   0  0  0  0  0  0  0  0  0  0  0  0
  -24.1132   -3.4814   31.1336 H   0  0  0  0  0  0  0  0  0  0  0  0
  -25.6015   -4.5500   29.7279 H   0  0  0  0  0  0  0  0  0  0  0  0
  -26.1393   -2.3001   30.5693 H   0  0  0  0  0  0  0  0  0  0  0  0
  -26.7367   -2.9859   32.0907 H   0  0  0  0  0  0  0  0  0  0  0  0
  -27.9383   -3.4077   29.3125 H   0  0  0  0  0  0  0  0  0  0  0  0
  -28.6339   -2.4422   30.6239 H   0  0  0  0  0  0  0  0  0  0  0  0
  -29.6971   -4.6981   30.4452 H   0  0  0  0  0  0  0  0  0  0  0  0
  -28.9159   -4.4474   32.0129 H   0  0  0  0  0  0  0  0  0  0  0  0
  -27.7771   -6.0183   29.6525 H   0  0  0  0  0  0  0  0  0  0  0  0
  -28.3748   -6.6920   31.1776 H   0  0  0  0  0  0  0  0  0  0  0  0
  -26.5812   -5.5645   32.4299 H   0  0  0  0  0  0  0  0  0  0  0  0
  -25.8773   -6.5385   31.1297 H   0  0  0  0  0  0  0  0  0  0  0  0
  1  2  1  0
  1  8  1  0
  2  3  1  0
  2  7  1  0
  2  9  1  0
  3  4  1  0
  3 10  1  0
  3 11  1  0
  4  5  1  0
  4 12  1  0
  4 13  1  0
  5  6  1  0
  5 14  1  0
  5 15  1  0
  6  7  1  0
  6 16  1  0
  6 17  1  0
  7 18  1  0
  7 19  1  0
M  END
> <intraLJ>
-0.471    

> <intraEL>
-1.198    

> <intraDihe>
8.631     

> <interLJ>
0.000     

> <interEJ>
0.000     

> <gridLJ>
-2.221    

> <gridEL>
0.000     

> <totalE>
4.740     

> <LGFE>
-2.221  

> <LE>
-0.317  

> <SMILES>
OC1CCCCC1

> <atom.dprop.GFE>
-0.66 -0.35 -0.31 -0.28 -0.2 -0.18 -0.23 0 0 0 0 0 0 0 0 0 0 0 0

> <atom.prop.CLASS>
MEOO PRPC PRPC PRPC PRPC PRPC PRPC NCLA NCLA NCLA NCLA NCLA NCLA NCLA NCLA NCLA NCLA NCLA NCLA

$$$$
34
     RDKit          3D

 19 19  0  0  0  0  0  0  0  0999 V2000
  -37.0570   15.1674   26.1778 O   0  0  0  0  0  0  0  0  0  0  0  0
  -35.9182   15.7953   26.7176 C   0  0  0  0  0  0  0  0  0  0  0  0
  -34.6766   15.3019   25.9664 C   0  0  0  0  0  0  0  0  0  0  0  0
  -33.3897   15.8670   26.5910 C   0  0  0  0  0  0  0  0  0  0  0  0
  -33.3078   15.5222   28.0853 C   0  0  0  0  0  0  0  0  0  0  0  0
  -34.5530   16.0143   28.8383 C   0  0  0  0  0  0  0  0  0  0  0  0
  -35.8327   15.4457   28.2064 C   0  0  0  0  0  0  0  0  0  0  0  0
  -37.1151   15.3831   25.2447 H   0  0  0  0  0  0  0  0  0  0  0  0
  -36.0046   16.8789   26.6091 H   0  0  0  0  0  0  0  0  0  0  0  0
  -34.7354   15.6123   24.9228 H   0  0  0  0  0  0  0  0  0  0  0  0
  -34.6466   14.2124   26.0065 H   0  0  0  0  0  0  0  0  0  0  0  0
  -33.3753   16.9526   26.4707 H   0  0  0  0  0  0  0  0  0  0  0  0
  -32.5236   15.4512   26.0751 H   0  0  0  0  0  0  0  0  0  0  0  0
  -32.4169   15.9829   28.5158 H   0  0  0  0  0  0  0  0  0  0  0  0
  -33.2233   14.4399   28.2004 H   0  0  0  0  0  0  0  0  0  0  0  0
  -34.5875   17.1055   28.8081 H   0  0  0  0  0  0  0  0  0  0  0  0
  -34.4941   15.6998   29.8816 H   0  0  0  0  0  0  0  0  0  0  0  0
  -35.8411   14.3600   28.3173 H   0  0  0  0  0  0  0  0  0  0  0  0
  -36.7051   15.8523   28.7188 H   0  0  0  0  0  0  0  0  0  0  0  0
  1  2  1  0
  1  8  1  0
  2  3  1  0
  2  7  1  0
  2  9  1  0
  3  4  1  0
  3 10  1  0
  3 11  1  0
  4  5  1  0
  4 12  1  0
  4 13  1  0
  5  6  1  0
  5 14  1  0
  5 15  1  0
  6  7  1  0
  6 16  1  0
  6 17  1  0
  7 18  1  0
  7 19  1  0
M  END
> <intraLJ>
-0.471    

> <intraEL>
-1.198    

> <intraDihe>
8.631     

> <interLJ>
0.000     

> <interEJ>
0.000     

> <gridLJ>
-2.179    

> <gridEL>
0.000     

> <totalE>
4.783     

> <LGFE>
-2.179  

> <LE>
-0.311  

> <SMILES>
OC1CCCCC1

> <atom.dprop.GFE>
-0.36 -0.28 -0.29 -0.35 -0.37 -0.27 -0.27 0 0 0 0 0 0 0 0 0 0 0 0

> <atom.prop.CLASS>
MEOO PRPC PRPC PRPC PRPC PRPC PRPC NCLA NCLA NCLA NCLA NCLA NCLA NCLA NCLA NCLA NCLA NCLA NCLA

$$$$
34
     RDKit          3D

 19 19  0  0  0  0  0  0  0  0999 V2000
  -39.9132   -1.1372   26.5279 O   0  0  0  0  0  0  0  0  0  0  0  0
  -41.0704   -0.3824   26.7995 C   0  0  0  0  0  0  0  0  0  0  0  0
  -42.0620   -0.5617   25.6447 C   0  0  0  0  0  0  0  0  0  0  0  0
  -43.2988    0.3333   25.8319 C   0  0  0  0  0  0  0  0  0  0  0  0
  -42.8917    1.8056   25.9904 C   0  0  0  0  0  0  0  0  0  0  0  0
  -41.8959    1.9856   27.1461 C   0  0  0  0  0  0  0  0  0  0  0  0
  -40.6652    1.0870   26.9506 C   0  0  0  0  0  0  0  0  0  0  0  0
  -40.1616   -2.0590   26.4320 H   0  0  0  0  0  0  0  0  0  0  0  0
  -41.5276   -0.7248   27.7306 H   0  0  0  0  0  0  0  0  0  0  0  0
  -42.3776   -1.6042   25.5945 H   0  0  0  0  0  0  0  0  0  0  0  0
  -41.5681   -0.2999   24.7081 H   0  0  0  0  0  0  0  0  0  0  0  0
  -43.8459    0.0133   26.7215 H   0  0  0  0  0  0  0  0  0  0  0  0
  -43.9553    0.2299   24.9673 H   0  0  0  0  0  0  0  0  0  0  0  0
  -43.7809    2.4098   26.1792 H   0  0  0  0  0  0  0  0  0  0  0  0
  -42.4320    2.1533   25.0632 H   0  0  0  0  0  0  0  0  0  0  0  0
  -42.3847    1.7312   28.0891 H   0  0  0  0  0  0  0  0  0  0  0  0
  -41.5786    3.0287   27.1926 H   0  0  0  0  0  0  0  0  0  0  0  0
  -40.1251    1.4004   26.0555 H   0  0  0  0  0  0  0  0  0  0  0  0
  -39.9998    1.1870   27.8086 H   0  0  0  0  0  0  0  0  0  0  0  0
  1  2  1  0
  1  8  1  0
  2  3  1  0
  2  7  1  0
  2  9  1  0
  3  4  1  0
  3 10  1  0
  3 11  1  0
  4  5  1  0
  4 12  1  0
  4 13  1  0
  5  6  1  0
  5 14  1  0
  5 15  1  0
  6  7  1  0
  6 16  1  0
  6 17  1  0
  7 18  1  0
  7 19  1  0
M  END
> <intraLJ>
-0.471    

> <intraEL>
-1.198    

> <intraDihe>
8.631     

> <interLJ>
0.000     

> <interEJ>
0.000     

> <gridLJ>
-2.185    

> <gridEL>
0.000     

> <totalE>
4.777     

> <LGFE>
-2.185  

> <LE>
-0.312  

> <SMILES>
OC1CCCCC1

> <atom.dprop.GFE>
-0.52 -0.41 -0.26 -0.13 -0.2 -0.31 -0.36 0 0 0 0 0 0 0 0 0 0 0 0

> <atom.prop.CLASS>
MEOO PRPC PRPC PRPC PRPC PRPC PRPC NCLA NCLA NCLA NCLA NCLA NCLA NCLA NCLA NCLA NCLA NCLA NCLA

$$$$
34
     RDKit          3D

 19 19  0  0  0  0  0  0  0  0999 V2000
   22.0678   12.6092   -0.5359 O   0  0  0  0  0  0  0  0  0  0  0  0
   21.2063   12.0296    0.4152 C   0  0  0  0  0  0  0  0  0  0  0  0
   20.9126   13.0598    1.5114 C   0  0  0  0  0  0  0  0  0  0  0  0
   20.0685   12.4433    2.6397 C   0  0  0  0  0  0  0  0  0  0  0  0
   20.7533   11.1967    3.2188 C   0  0  0  0  0  0  0  0  0  0  0  0
   21.0501   10.1648    2.1201 C   0  0  0  0  0  0  0  0  0  0  0  0
   21.8923   10.7902    0.9977 C   0  0  0  0  0  0  0  0  0  0  0  0
   21.6427   13.3867   -0.9039 H   0  0  0  0  0  0  0  0  0  0  0  0
   20.2717   11.7291   -0.0640 H   0  0  0  0  0  0  0  0  0  0  0  0
   20.3747   13.9053    1.0816 H   0  0  0  0  0  0  0  0  0  0  0  0
   21.8563   13.4185    1.9241 H   0  0  0  0  0  0  0  0  0  0  0  0
   19.0874   12.1659    2.2478 H   0  0  0  0  0  0  0  0  0  0  0  0
   19.9280   13.1802    3.4313 H   0  0  0  0  0  0  0  0  0  0  0  0
   20.1082   10.7466    3.9755 H   0  0  0  0  0  0  0  0  0  0  0  0
   21.6894   11.4903    3.6976 H   0  0  0  0  0  0  0  0  0  0  0  0
   20.1096    9.7958    1.7054 H   0  0  0  0  0  0  0  0  0  0  0  0
   21.5915    9.3211    2.5514 H   0  0  0  0  0  0  0  0  0  0  0  0
   22.8684   11.0772    1.3927 H   0  0  0  0  0  0  0  0  0  0  0  0
   22.0423   10.0591    0.2028 H   0  0  0  0  0  0  0  0  0  0  0  0
  1  2  1  0
  1  8  1  0
  2  3  1  0
  2  7  1  0
  2  9  1  0
  3  4  1  0
  3 10  1  0
  3 11  1  0
  4  5  1  0
  4 12  1  0
  4 13  1  0
  5  6  1  0
  5 14  1  0
  5 15  1  0
  6  7  1  0
  6 16  1  0
  6 17  1  0
  7 18  1  0
  7 19  1  0
M  END
> <intraLJ>
-0.471    

> <intraEL>
-1.198    

> <intraDihe>
8.631     

> <interLJ>
0.000     

> <interEJ>
0.000     

> <gridLJ>
-2.185    

> <gridEL>
0.000     

> <totalE>
4.777     

> <LGFE>
-2.185  

> <LE>
-0.312  

> <SMILES>
OC1CCCCC1

> <atom.dprop.GFE>
-0.48 -0.29 -0.28 -0.27 -0.28 -0.29 -0.29 0 0 0 0 0 0 0 0 0 0 0 0

> <atom.prop.CLASS>
MEOO PRPC PRPC PRPC PRPC PRPC PRPC NCLA NCLA NCLA NCLA NCLA NCLA NCLA NCLA NCLA NCLA NCLA NCLA

$$$$
34
     RDKit          3D

 19 19  0  0  0  0  0  0  0  0999 V2000
   26.1327   12.5768   -4.6275 O   0  0  0  0  0  0  0  0  0  0  0  0
   25.2180   13.6448   -4.7003 C   0  0  0  0  0  0  0  0  0  0  0  0
   23.9192   13.2344   -3.9974 C   0  0  0  0  0  0  0  0  0  0  0  0
   22.8407   14.3206   -4.1472 C   0  0  0  0  0  0  0  0  0  0  0  0
   22.5917   14.6463   -5.6272 C   0  0  0  0  0  0  0  0  0  0  0  0
   23.8936   15.0553   -6.3328 C   0  0  0  0  0  0  0  0  0  0  0  0
   24.9645   13.9649   -6.1766 C   0  0  0  0  0  0  0  0  0  0  0  0
   26.2949   12.3719   -3.7042 H   0  0  0  0  0  0  0  0  0  0  0  0
   25.6363   14.5267   -4.2098 H   0  0  0  0  0  0  0  0  0  0  0  0
   24.1158   13.0674   -2.9380 H   0  0  0  0  0  0  0  0  0  0  0  0
   23.5557   12.3047   -4.4369 H   0  0  0  0  0  0  0  0  0  0  0  0
   23.1642   15.2260   -3.6288 H   0  0  0  0  0  0  0  0  0  0  0  0
   21.9123   13.9750   -3.6911 H   0  0  0  0  0  0  0  0  0  0  0  0
   21.8664   15.4584   -5.7032 H   0  0  0  0  0  0  0  0  0  0  0  0
   22.1753   13.7677   -6.1236 H   0  0  0  0  0  0  0  0  0  0  0  0
   24.2614   15.9893   -5.9026 H   0  0  0  0  0  0  0  0  0  0  0  0
   23.6955   15.2185   -7.3935 H   0  0  0  0  0  0  0  0  0  0  0  0
   24.6355   13.0571   -6.6854 H   0  0  0  0  0  0  0  0  0  0  0  0
   25.8960   14.2995   -6.6339 H   0  0  0  0  0  0  0  0  0  0  0  0
  1  2  1  0
  1  8  1  0
  2  3  1  0
  2  7  1  0
  2  9  1  0
  3  4  1  0
  3 10  1  0
  3 11  1  0
  4  5  1  0
  4 12  1  0
  4 13  1  0
  5  6  1  0
  5 14  1  0
  5 15  1  0
  6  7  1  0
  6 16  1  0
  6 17  1  0
  7 18  1  0
  7 19  1  0
M  END
> <intraLJ>
-0.471    

> <intraEL>
-1.198    

> <intraDihe>
8.631     

> <interLJ>
0.000     

> <interEJ>
0.000     

> <gridLJ>
-2.182    

> <gridEL>
0.000     

> <totalE>
4.780     

> <LGFE>
-2.182  

> <LE>
-0.312  

> <SMILES>
OC1CCCCC1

> <atom.dprop.GFE>
-0.38 -0.07 -0.33 -0.46 -0.51 -0.31 -0.12 0 0 0 0 0 0 0 0 0 0 0 0

> <atom.prop.CLASS>
MEOO PRPC PRPC PRPC PRPC PRPC PRPC NCLA NCLA NCLA NCLA NCLA NCLA NCLA NCLA NCLA NCLA NCLA NCLA

$$$$
34
     RDKit          3D

 19 19  0  0  0  0  0  0  0  0999 V2000
  -39.9249    8.0823   16.3540 O   0  0  0  0  0  0  0  0  0  0  0  0
  -38.8430    8.3836   15.5046 C   0  0  0  0  0  0  0  0  0  0  0  0
  -37.9517    7.1433   15.3775 C   0  0  0  0  0  0  0  0  0  0  0  0
  -36.6897    7.4495   14.5533 C   0  0  0  0  0  0  0  0  0  0  0  0
  -35.9145    8.6306   15.1553 C   0  0  0  0  0  0  0  0  0  0  0  0
  -36.8080    9.8735   15.2853 C   0  0  0  0  0  0  0  0  0  0  0  0
  -38.0658    9.5572   16.1087 C   0  0  0  0  0  0  0  0  0  0  0  0
  -40.4152    7.3472   15.9801 H   0  0  0  0  0  0  0  0  0  0  0  0
  -39.2136    8.6703   14.5178 H   0  0  0  0  0  0  0  0  0  0  0  0
  -38.5105    6.3415   14.8939 H   0  0  0  0  0  0  0  0  0  0  0  0
  -37.6577    6.8131   16.3746 H   0  0  0  0  0  0  0  0  0  0  0  0
  -36.9771    7.6926   13.5279 H   0  0  0  0  0  0  0  0  0  0  0  0
  -36.0479    6.5681   14.5320 H   0  0  0  0  0  0  0  0  0  0  0  0
  -35.0576    8.8637   14.5206 H   0  0  0  0  0  0  0  0  0  0  0  0
  -35.5430    8.3510   16.1430 H   0  0  0  0  0  0  0  0  0  0  0  0
  -37.1021   10.2145   14.2903 H   0  0  0  0  0  0  0  0  0  0  0  0
  -36.2482   10.6735   15.7726 H   0  0  0  0  0  0  0  0  0  0  0  0
  -37.7770    9.3037   17.1302 H   0  0  0  0  0  0  0  0  0  0  0  0
  -38.7123   10.4347   16.1398 H   0  0  0  0  0  0  0  0  0  0  0  0
  1  2  1  0
  1  8  1  0
  2  3  1  0
  2  7  1  0
  2  9  1  0
  3  4  1  0
  3 10  1  0
  3 11  1  0
  4  5  1  0
  4 12  1  0
  4 13  1  0
  5  6  1  0
  5 14  1  0
  5 15  1  0
  6  7  1  0
  6 16  1  0
  6 17  1  0
  7 18  1  0
  7 19  1  0
M  END
> <intraLJ>
-0.471    

> <intraEL>
-1.198    

> <intraDihe>
8.631     

> <interLJ>
0.000     

> <interEJ>
0.000     

> <gridLJ>
-2.167    

> <gridEL>
0.000     

> <totalE>
4.795     

> <LGFE>
-2.167  

> <LE>
-0.310  

> <SMILES>
OC1CCCCC1

> <atom.dprop.GFE>
-0.56 -0.19 -0.24 -0.28 -0.37 -0.33 -0.2 0 0 0 0 0 0 0 0 0 0 0 0

> <atom.prop.CLASS>
MEOO PRPC PRPC PRPC PRPC PRPC PRPC NCLA NCLA NCLA NCLA NCLA NCLA NCLA NCLA NCLA NCLA NCLA NCLA

$$$$
34
     RDKit          3D

 19 19  0  0  0  0  0  0  0  0999 V2000
   19.9011   -3.6967  -13.5417 O   0  0  0  0  0  0  0  0  0  0  0  0
   20.1301   -3.1939  -12.2466 C   0  0  0  0  0  0  0  0  0  0  0  0
   21.4947   -2.4966  -12.2191 C   0  0  0  0  0  0  0  0  0  0  0  0
   21.8498   -2.0287  -10.7976 C   0  0  0  0  0  0  0  0  0  0  0  0
   21.8057   -3.2014   -9.8070 C   0  0  0  0  0  0  0  0  0  0  0  0
   20.4390   -3.9022   -9.8358 C   0  0  0  0  0  0  0  0  0  0  0  0
   20.0930   -4.3645  -11.2595 C   0  0  0  0  0  0  0  0  0  0  0  0
   19.9236   -2.9670  -14.1644 H   0  0  0  0  0  0  0  0  0  0  0  0
   19.3484   -2.4781  -11.9820 H   0  0  0  0  0  0  0  0  0  0  0  0
   21.4765   -1.6347  -12.8867 H   0  0  0  0  0  0  0  0  0  0  0  0
   22.2573   -3.1939  -12.5684 H   0  0  0  0  0  0  0  0  0  0  0  0
   21.1388   -1.2626  -10.4805 H   0  0  0  0  0  0  0  0  0  0  0  0
   22.8493   -1.5926  -10.7986 H   0  0  0  0  0  0  0  0  0  0  0  0
   22.0040   -2.8327   -8.7990 H   0  0  0  0  0  0  0  0  0  0  0  0
   22.5837   -3.9216  -10.0674 H   0  0  0  0  0  0  0  0  0  0  0  0
   19.6700   -3.2123   -9.4815 H   0  0  0  0  0  0  0  0  0  0  0  0
   20.4602   -4.7664   -9.1699 H   0  0  0  0  0  0  0  0  0  0  0  0
   20.8104   -5.1220  -11.5798 H   0  0  0  0  0  0  0  0  0  0  0  0
   19.0963   -4.8066  -11.2680 H   0  0  0  0  0  0  0  0  0  0  0  0
  1  2  1  0
  1  8  1  0
  2  3  1  0
  2  7  1  0
  2  9  1  0
  3  4  1  0
  3 10  1  0
  3 11  1  0
  4  5  1  0
  4 12  1  0
  4 13  1  0
  5  6  1  0
  5 14  1  0
  5 15  1  0
  6  7  1  0
  6 16  1  0
  6 17  1  0
  7 18  1  0
  7 19  1  0
M  END
> <intraLJ>
-0.471    

> <intraEL>
-1.198    

> <intraDihe>
8.631     

> <interLJ>
0.000     

> <interEJ>
0.000     

> <gridLJ>
-2.174    

> <gridEL>
0.000     

> <totalE>
4.787     

> <LGFE>
-2.174  

> <LE>
-0.311  

> <SMILES>
OC1CCCCC1

> <atom.dprop.GFE>
-0.51 -0.36 -0.26 -0.25 -0.22 -0.27 -0.3 0 0 0 0 0 0 0 0 0 0 0 0

> <atom.prop.CLASS>
MEOO PRPC PRPC PRPC PRPC PRPC PRPC NCLA NCLA NCLA NCLA NCLA NCLA NCLA NCLA NCLA NCLA NCLA NCLA

$$$$
34
     RDKit          3D

 19 19  0  0  0  0  0  0  0  0999 V2000
  -25.0193   -4.2584   31.9952 O   0  0  0  0  0  0  0  0  0  0  0  0
  -26.4233   -4.3516   31.9426 C   0  0  0  0  0  0  0  0  0  0  0  0
  -26.8356   -4.8531   30.5542 C   0  0  0  0  0  0  0  0  0  0  0  0
  -28.3659   -4.8634   30.4003 C   0  0  0  0  0  0  0  0  0  0  0  0
  -28.9554   -3.4745   30.6862 C   0  0  0  0  0  0  0  0  0  0  0  0
  -28.5406   -2.9702   32.0768 C   0  0  0  0  0  0  0  0  0  0  0  0
  -27.0111   -2.9648   32.2210 C   0  0  0  0  0  0  0  0  0  0  0  0
  -24.6459   -5.1249   31.8211 H   0  0  0  0  0  0  0  0  0  0  0  0
  -26.7784   -5.0499   32.7039 H   0  0  0  0  0  0  0  0  0  0  0  0
  -26.4528   -5.8629   30.4035 H   0  0  0  0  0  0  0  0  0  0  0  0
  -26.4031   -4.1981   29.7968 H   0  0  0  0  0  0  0  0  0  0  0  0
  -28.7950   -5.5871   31.0969 H   0  0  0  0  0  0  0  0  0  0  0  0
  -28.6260   -5.1655   29.3852 H   0  0  0  0  0  0  0  0  0  0  0  0
  -30.0443   -3.5231   30.6271 H   0  0  0  0  0  0  0  0  0  0  0  0
  -28.6025   -2.7713   29.9295 H   0  0  0  0  0  0  0  0  0  0  0  0
  -28.9748   -3.6175   32.8418 H   0  0  0  0  0  0  0  0  0  0  0  0
  -28.9215   -1.9583   32.2243 H   0  0  0  0  0  0  0  0  0  0  0  0
  -26.5823   -2.2495   31.5169 H   0  0  0  0  0  0  0  0  0  0  0  0
  -26.7405   -2.6593   33.2321 H   0  0  0  0  0  0  0  0  0  0  0  0
  1  2  1  0
  1  8  1  0
  2  3  1  0
  2  7  1  0
  2  9  1  0
  3  4  1  0
  3 10  1  0
  3 11  1  0
  4  5  1  0
  4 12  1  0
  4 13  1  0
  5  6  1  0
  5 14  1  0
  5 15  1  0
  6  7  1  0
  6 16  1  0
  6 17  1  0
  7 18  1  0
  7 19  1  0
M  END
> <intraLJ>
-0.471    

> <intraEL>
-1.198    

> <intraDihe>
8.631     

> <interLJ>
0.000     

> <interEJ>
0.000     

> <gridLJ>
-2.184    

> <gridEL>
0.000     

> <totalE>
4.778     

> <LGFE>
-2.184  

> <LE>
-0.312  

> <SMILES>
OC1CCCCC1

> <atom.dprop.GFE>
-0.66 -0.28 -0.32 -0.2 -0.22 -0.2 -0.29 0 0 0 0 0 0 0 0 0 0 0 0

> <atom.prop.CLASS>
MEOO PRPC PRPC PRPC PRPC PRPC PRPC NCLA NCLA NCLA NCLA NCLA NCLA NCLA NCLA NCLA NCLA NCLA NCLA

$$$$
34
     RDKit          3D

 19 19  0  0  0  0  0  0  0  0999 V2000
   13.7238   -2.9521  -38.3920 O   0  0  0  0  0  0  0  0  0  0  0  0
   12.6382   -3.7687  -38.7626 C   0  0  0  0  0  0  0  0  0  0  0  0
   11.3832   -2.8981  -38.8896 C   0  0  0  0  0  0  0  0  0  0  0  0
   10.1401   -3.7562  -39.1792 C   0  0  0  0  0  0  0  0  0  0  0  0
    9.9582   -4.8386  -38.1051 C   0  0  0  0  0  0  0  0  0  0  0  0
   11.2167   -5.7101  -37.9757 C   0  0  0  0  0  0  0  0  0  0  0  0
   12.4525   -4.8440  -37.6877 C   0  0  0  0  0  0  0  0  0  0  0  0
   13.8443   -2.2762  -39.0622 H   0  0  0  0  0  0  0  0  0  0  0  0
   12.8463   -4.2520  -39.7198 H   0  0  0  0  0  0  0  0  0  0  0  0
   11.5193   -2.1790  -39.6979 H   0  0  0  0  0  0  0  0  0  0  0  0
   11.2333   -2.3524  -37.9571 H   0  0  0  0  0  0  0  0  0  0  0  0
   10.2487   -4.2329  -40.1560 H   0  0  0  0  0  0  0  0  0  0  0  0
    9.2564   -3.1176  -39.2033 H   0  0  0  0  0  0  0  0  0  0  0  0
    9.1053   -5.4682  -38.3649 H   0  0  0  0  0  0  0  0  0  0  0  0
    9.7518   -4.3616  -37.1451 H   0  0  0  0  0  0  0  0  0  0  0  0
   11.3708   -6.2649  -38.9036 H   0  0  0  0  0  0  0  0  0  0  0  0
   11.0800   -6.4266  -37.1640 H   0  0  0  0  0  0  0  0  0  0  0  0
   12.3382   -4.3594  -36.7165 H   0  0  0  0  0  0  0  0  0  0  0  0
   13.3415   -5.4746  -37.6570 H   0  0  0  0  0  0  0  0  0  0  0  0
  1  2  1  0
  1  8  1  0
  2  3  1  0
  2  7  1  0
  2  9  1  0
  3  4  1  0
  3 10  1  0
  3 11  1  0
  4  5  1  0
  4 12  1  0
  4 13  1  0
  5  6  1  0
  5 14  1  0
  5 15  1  0
  6  7  1  0
  6 16  1  0
  6 17  1  0
  7 18  1  0
  7 19  1  0
M  END
> <intraLJ>
-0.471    

> <intraEL>
-1.198    

> <intraDihe>
8.631     

> <interLJ>
0.000     

> <interEJ>
0.000     

> <gridLJ>
-2.155    

> <gridEL>
0.000     

> <totalE>
4.807     

> <LGFE>
-2.155  

> <LE>
-0.308  

> <SMILES>
OC1CCCCC1

> <atom.dprop.GFE>
-0.68 -0.22 -0.27 -0.26 -0.24 -0.23 -0.25 0 0 0 0 0 0 0 0 0 0 0 0

> <atom.prop.CLASS>
MEOO PRPC PRPC PRPC PRPC PRPC PRPC NCLA NCLA NCLA NCLA NCLA NCLA NCLA NCLA NCLA NCLA NCLA NCLA

$$$$
34
     RDKit          3D

 19 19  0  0  0  0  0  0  0  0999 V2000
   11.7436   14.8665   -7.6245 O   0  0  0  0  0  0  0  0  0  0  0  0
   10.8401   15.1824   -8.6573 C   0  0  0  0  0  0  0  0  0  0  0  0
   11.2508   16.5193   -9.2843 C   0  0  0  0  0  0  0  0  0  0  0  0
   10.2305   16.9722  -10.3423 C   0  0  0  0  0  0  0  0  0  0  0  0
    8.8181   17.0503   -9.7444 C   0  0  0  0  0  0  0  0  0  0  0  0
    8.4068   15.7113   -9.1137 C   0  0  0  0  0  0  0  0  0  0  0  0
    9.4324   15.2671   -8.0596 C   0  0  0  0  0  0  0  0  0  0  0  0
   12.6275   14.8125   -7.9938 H   0  0  0  0  0  0  0  0  0  0  0  0
   10.8585   14.4000   -9.4195 H   0  0  0  0  0  0  0  0  0  0  0  0
   12.2308   16.4164   -9.7514 H   0  0  0  0  0  0  0  0  0  0  0  0
   11.3143   17.2749   -8.5003 H   0  0  0  0  0  0  0  0  0  0  0  0
   10.2312   16.2628  -11.1729 H   0  0  0  0  0  0  0  0  0  0  0  0
   10.5165   17.9523  -10.7255 H   0  0  0  0  0  0  0  0  0  0  0  0
    8.1065   17.3169  -10.5279 H   0  0  0  0  0  0  0  0  0  0  0  0
    8.7938   17.8294   -8.9801 H   0  0  0  0  0  0  0  0  0  0  0  0
    8.3350   14.9499   -9.8934 H   0  0  0  0  0  0  0  0  0  0  0  0
    7.4276   15.8172   -8.6437 H   0  0  0  0  0  0  0  0  0  0  0  0
    9.4390   15.9823   -7.2352 H   0  0  0  0  0  0  0  0  0  0  0  0
    9.1524   14.2892   -7.6668 H   0  0  0  0  0  0  0  0  0  0  0  0
  1  2  1  0
  1  8  1  0
  2  3  1  0
  2  7  1  0
  2  9  1  0
  3  4  1  0
  3 10  1  0
  3 11  1  0
  4  5  1  0
  4 12  1  0
  4 13  1  0
  5  6  1  0
  5 14  1  0
  5 15  1  0
  6  7  1  0
  6 16  1  0
  6 17  1  0
  7 18  1  0
  7 19  1  0
M  END
> <intraLJ>
-0.471    

> <intraEL>
-1.198    

> <intraDihe>
8.631     

> <interLJ>
0.000     

> <interEJ>
0.000     

> <gridLJ>
-2.155    

> <gridEL>
0.000     

> <totalE>
4.807     

> <LGFE>
-2.155  

> <LE>
-0.308  

> <SMILES>
OC1CCCCC1

> <atom.dprop.GFE>
-0.71 -0.23 -0.15 -0.25 -0.28 -0.28 -0.25 0 0 0 0 0 0 0 0 0 0 0 0

> <atom.prop.CLASS>
MEOO PRPC PRPC PRPC PRPC PRPC PRPC NCLA NCLA NCLA NCLA NCLA NCLA NCLA NCLA NCLA NCLA NCLA NCLA

$$$$
34
     RDKit          3D

 19 19  0  0  0  0  0  0  0  0999 V2000
    1.5361   11.7670   -7.8735 O   0  0  0  0  0  0  0  0  0  0  0  0
    2.2663   12.0333   -9.0477 C   0  0  0  0  0  0  0  0  0  0  0  0
    2.9813   13.3800   -8.8926 C   0  0  0  0  0  0  0  0  0  0  0  0
    3.7019   13.7780  -10.1919 C   0  0  0  0  0  0  0  0  0  0  0  0
    2.7245   13.8017  -11.3762 C   0  0  0  0  0  0  0  0  0  0  0  0
    2.0057   12.4528  -11.5306 C   0  0  0  0  0  0  0  0  0  0  0  0
    1.2903   12.0638  -10.2278 C   0  0  0  0  0  0  0  0  0  0  0  0
    2.1431   11.7471   -7.1306 H   0  0  0  0  0  0  0  0  0  0  0  0
    3.0038   11.2447   -9.2137 H   0  0  0  0  0  0  0  0  0  0  0  0
    3.7097   13.3144   -8.0838 H   0  0  0  0  0  0  0  0  0  0  0  0
    2.2465   14.1457   -8.6408 H   0  0  0  0  0  0  0  0  0  0  0  0
    4.4996   13.0608  -10.3977 H   0  0  0  0  0  0  0  0  0  0  0  0
    4.1485   14.7655  -10.0708 H   0  0  0  0  0  0  0  0  0  0  0  0
    3.2708   14.0295  -12.2933 H   0  0  0  0  0  0  0  0  0  0  0  0
    1.9833   14.5869  -11.2151 H   0  0  0  0  0  0  0  0  0  0  0  0
    2.7340   11.6811  -11.7890 H   0  0  0  0  0  0  0  0  0  0  0  0
    1.2748   12.5215  -12.3380 H   0  0  0  0  0  0  0  0  0  0  0  0
    0.5006   12.7870  -10.0171 H   0  0  0  0  0  0  0  0  0  0  0  0
    0.8362   11.0789  -10.3405 H   0  0  0  0  0  0  0  0  0  0  0  0
  1  2  1  0
  1  8  1  0
  2  3  1  0
  2  7  1  0
  2  9  1  0
  3  4  1  0
  3 10  1  0
  3 11  1  0
  4  5  1  0
  4 12  1  0
  4 13  1  0
  5  6  1  0
  5 14  1  0
  5 15  1  0
  6  7  1  0
  6 16  1  0
  6 17  1  0
  7 18  1  0
  7 19  1  0
M  END
> <intraLJ>
-0.471    

> <intraEL>
-1.198    

> <intraDihe>
8.631     

> <interLJ>
0.000     

> <interEJ>
0.000     

> <gridLJ>
-2.119    

> <gridEL>
0.000     

> <totalE>
4.843     

> <LGFE>
-2.119  

> <LE>
-0.303  

> <SMILES>
OC1CCCCC1

> <atom.dprop.GFE>
-0.69 -0.23 -0.29 -0.35 -0.23 -0.19 -0.15 0 0 0 0 0 0 0 0 0 0 0 0

> <atom.prop.CLASS>
MEOO PRPC PRPC PRPC PRPC PRPC PRPC NCLA NCLA NCLA NCLA NCLA NCLA NCLA NCLA NCLA NCLA NCLA NCLA

$$$$
34
     RDKit          3D

 19 19  0  0  0  0  0  0  0  0999 V2000
   23.8046   11.6505  -17.3437 O   0  0  0  0  0  0  0  0  0  0  0  0
   23.0493   12.2282  -18.3821 C   0  0  0  0  0  0  0  0  0  0  0  0
   21.7744   12.8377  -17.7886 C   0  0  0  0  0  0  0  0  0  0  0  0
   20.8533   13.3815  -18.8937 C   0  0  0  0  0  0  0  0  0  0  0  0
   20.5202   12.2871  -19.9183 C   0  0  0  0  0  0  0  0  0  0  0  0
   21.7977   11.6741  -20.5118 C   0  0  0  0  0  0  0  0  0  0  0  0
   22.7112   11.1350  -19.4004 C   0  0  0  0  0  0  0  0  0  0  0  0
   24.0189   12.3313  -16.7025 H   0  0  0  0  0  0  0  0  0  0  0  0
   23.6323   13.0090  -18.8759 H   0  0  0  0  0  0  0  0  0  0  0  0
   22.0404   13.6496  -17.1111 H   0  0  0  0  0  0  0  0  0  0  0  0
   21.2432   12.0705  -17.2239 H   0  0  0  0  0  0  0  0  0  0  0  0
   21.3488   14.2118  -19.4020 H   0  0  0  0  0  0  0  0  0  0  0  0
   19.9303   13.7523  -18.4465 H   0  0  0  0  0  0  0  0  0  0  0  0
   19.9147   12.7129  -20.7204 H   0  0  0  0  0  0  0  0  0  0  0  0
   19.9390   11.5024  -19.4301 H   0  0  0  0  0  0  0  0  0  0  0  0
   22.3329   12.4347  -21.0843 H   0  0  0  0  0  0  0  0  0  0  0  0
   21.5296   10.8595  -21.1867 H   0  0  0  0  0  0  0  0  0  0  0  0
   22.2109   10.3128  -18.8859 H   0  0  0  0  0  0  0  0  0  0  0  0
   23.6356   10.7575  -19.8384 H   0  0  0  0  0  0  0  0  0  0  0  0
  1  2  1  0
  1  8  1  0
  2  3  1  0
  2  7  1  0
  2  9  1  0
  3  4  1  0
  3 10  1  0
  3 11  1  0
  4  5  1  0
  4 12  1  0
  4 13  1  0
  5  6  1  0
  5 14  1  0
  5 15  1  0
  6  7  1  0
  6 16  1  0
  6 17  1  0
  7 18  1  0
  7 19  1  0
M  END
> <intraLJ>
-0.471    

> <intraEL>
-1.198    

> <intraDihe>
8.631     

> <interLJ>
0.000     

> <interEJ>
0.000     

> <gridLJ>
-2.114    

> <gridEL>
0.000     

> <totalE>
4.848     

> <LGFE>
-2.114  

> <LE>
-0.302  

> <SMILES>
OC1CCCCC1

> <atom.dprop.GFE>
-0.49 -0.33 -0.48 -0.37 -0.2 -0.13 -0.12 0 0 0 0 0 0 0 0 0 0 0 0

> <atom.prop.CLASS>
MEOO PRPC PRPC PRPC PRPC PRPC PRPC NCLA NCLA NCLA NCLA NCLA NCLA NCLA NCLA NCLA NCLA NCLA NCLA

$$$$
34
     RDKit          3D

 19 19  0  0  0  0  0  0  0  0999 V2000
   21.0390    3.3586   49.1533 O   0  0  0  0  0  0  0  0  0  0  0  0
   22.3867    3.1083   49.4755 C   0  0  0  0  0  0  0  0  0  0  0  0
   22.9587    2.1027   48.4702 C   0  0  0  0  0  0  0  0  0  0  0  0
   24.3963    1.7027   48.8430 C   0  0  0  0  0  0  0  0  0  0  0  0
   24.4586    1.1521   50.2753 C   0  0  0  0  0  0  0  0  0  0  0  0
   23.8832    2.1586   51.2831 C   0  0  0  0  0  0  0  0  0  0  0  0
   22.4481    2.5527   50.9016 C   0  0  0  0  0  0  0  0  0  0  0  0
   20.9949    3.7067   48.2603 H   0  0  0  0  0  0  0  0  0  0  0  0
   22.9589    4.0377   49.4289 H   0  0  0  0  0  0  0  0  0  0  0  0
   22.9559    2.5435   47.4728 H   0  0  0  0  0  0  0  0  0  0  0  0
   22.3292    1.2120   48.4611 H   0  0  0  0  0  0  0  0  0  0  0  0
   25.0471    2.5764   48.7645 H   0  0  0  0  0  0  0  0  0  0  0  0
   24.7532    0.9429   48.1469 H   0  0  0  0  0  0  0  0  0  0  0  0
   25.4956    0.9307   50.5343 H   0  0  0  0  0  0  0  0  0  0  0  0
   23.8866    0.2238   50.3289 H   0  0  0  0  0  0  0  0  0  0  0  0
   24.5115    3.0516   51.3030 H   0  0  0  0  0  0  0  0  0  0  0  0
   23.8835    1.7144   52.2800 H   0  0  0  0  0  0  0  0  0  0  0  0
   21.8006    1.6767   50.9696 H   0  0  0  0  0  0  0  0  0  0  0  0
   22.0803    3.3093   51.5952 H   0  0  0  0  0  0  0  0  0  0  0  0
  1  2  1  0
  1  8  1  0
  2  3  1  0
  2  7  1  0
  2  9  1  0
  3  4  1  0
  3 10  1  0
  3 11  1  0
  4  5  1  0
  4 12  1  0
  4 13  1  0
  5  6  1  0
  5 14  1  0
  5 15  1  0
  6  7  1  0
  6 16  1  0
  6 17  1  0
  7 18  1  0
  7 19  1  0
M  END
> <intraLJ>
-0.471    

> <intraEL>
-1.198    

> <intraDihe>
8.631     

> <interLJ>
0.000     

> <interEJ>
0.000     

> <gridLJ>
-2.106    

> <gridEL>
0.000     

> <totalE>
4.856     

> <LGFE>
-2.106  

> <LE>
-0.301  

> <SMILES>
OC1CCCCC1

> <atom.dprop.GFE>
-0.25 -0.3 -0.3 -0.28 -0.33 -0.34 -0.31 0 0 0 0 0 0 0 0 0 0 0 0

> <atom.prop.CLASS>
MEOO PRPC PRPC PRPC PRPC PRPC PRPC NCLA NCLA NCLA NCLA NCLA NCLA NCLA NCLA NCLA NCLA NCLA NCLA

$$$$
34
     RDKit          3D

 19 19  0  0  0  0  0  0  0  0999 V2000
  -19.0622   -2.5174   28.4490 O   0  0  0  0  0  0  0  0  0  0  0  0
  -20.0853   -1.5540   28.5372 C   0  0  0  0  0  0  0  0  0  0  0  0
  -19.4751   -0.1625   28.3360 C   0  0  0  0  0  0  0  0  0  0  0  0
  -20.5288    0.9395   28.5380 C   0  0  0  0  0  0  0  0  0  0  0  0
  -21.1917    0.8185   29.9180 C   0  0  0  0  0  0  0  0  0  0  0  0
  -21.8014   -0.5768   30.1212 C   0  0  0  0  0  0  0  0  0  0  0  0
  -20.7418   -1.6702   29.9162 C   0  0  0  0  0  0  0  0  0  0  0  0
  -18.6473   -2.4487   27.5866 H   0  0  0  0  0  0  0  0  0  0  0  0
  -20.8372   -1.7384   27.7665 H   0  0  0  0  0  0  0  0  0  0  0  0
  -19.0653   -0.0870   27.3284 H   0  0  0  0  0  0  0  0  0  0  0  0
  -18.6664   -0.0217   29.0543 H   0  0  0  0  0  0  0  0  0  0  0  0
  -21.2936    0.8557   27.7626 H   0  0  0  0  0  0  0  0  0  0  0  0
  -20.0530    1.9167   28.4490 H   0  0  0  0  0  0  0  0  0  0  0  0
  -21.9736    1.5742   30.0126 H   0  0  0  0  0  0  0  0  0  0  0  0
  -20.4446    0.9999   30.6930 H   0  0  0  0  0  0  0  0  0  0  0  0
  -22.6166   -0.7237   29.4094 H   0  0  0  0  0  0  0  0  0  0  0  0
  -22.2078   -0.6516   31.1312 H   0  0  0  0  0  0  0  0  0  0  0  0
  -19.9723   -1.5788   30.6848 H   0  0  0  0  0  0  0  0  0  0  0  0
  -21.2073   -2.6519   30.0079 H   0  0  0  0  0  0  0  0  0  0  0  0
  1  2  1  0
  1  8  1  0
  2  3  1  0
  2  7  1  0
  2  9  1  0
  3  4  1  0
  3 10  1  0
  3 11  1  0
  4  5  1  0
  4 12  1  0
  4 13  1  0
  5  6  1  0
  5 14  1  0
  5 15  1  0
  6  7  1  0
  6 16  1  0
  6 17  1  0
  7 18  1  0
  7 19  1  0
M  END
> <intraLJ>
-0.471    

> <intraEL>
-1.198    

> <intraDihe>
8.631     

> <interLJ>
0.000     

> <interEJ>
0.000     

> <gridLJ>
-2.107    

> <gridEL>
0.000     

> <totalE>
4.855     

> <LGFE>
-2.107  

> <LE>
-0.301  

> <SMILES>
OC1CCCCC1

> <atom.dprop.GFE>
-0.36 -0.24 -0.26 -0.33 -0.32 -0.33 -0.27 0 0 0 0 0 0 0 0 0 0 0 0

> <atom.prop.CLASS>
MEOO PRPC PRPC PRPC PRPC PRPC PRPC NCLA NCLA NCLA NCLA NCLA NCLA NCLA NCLA NCLA NCLA NCLA NCLA

$$$$
34
     RDKit          3D

 19 19  0  0  0  0  0  0  0  0999 V2000
   10.0435   -3.4870    9.0080 O   0  0  0  0  0  0  0  0  0  0  0  0
   10.8646   -4.2550    8.1604 C   0  0  0  0  0  0  0  0  0  0  0  0
   11.7876   -3.3143    7.3780 C   0  0  0  0  0  0  0  0  0  0  0  0
   12.6276   -4.0905    6.3496 C   0  0  0  0  0  0  0  0  0  0  0  0
   11.7274   -4.8984    5.4034 C   0  0  0  0  0  0  0  0  0  0  0  0
   10.8003   -5.8397    6.1872 C   0  0  0  0  0  0  0  0  0  0  0  0
    9.9667   -5.0555    7.2121 C   0  0  0  0  0  0  0  0  0  0  0  0
   10.6013   -2.9831    9.6043 H   0  0  0  0  0  0  0  0  0  0  0  0
   11.4661   -4.9478    8.7533 H   0  0  0  0  0  0  0  0  0  0  0  0
   12.4540   -2.7992    8.0705 H   0  0  0  0  0  0  0  0  0  0  0  0
   11.1806   -2.5717    6.8585 H   0  0  0  0  0  0  0  0  0  0  0  0
   13.3024   -4.7713    6.8732 H   0  0  0  0  0  0  0  0  0  0  0  0
   13.2275   -3.3894    5.7684 H   0  0  0  0  0  0  0  0  0  0  0  0
   12.3485   -5.4835    4.7228 H   0  0  0  0  0  0  0  0  0  0  0  0
   11.1219   -4.2113    4.8092 H   0  0  0  0  0  0  0  0  0  0  0  0
   11.4002   -6.5906    6.7059 H   0  0  0  0  0  0  0  0  0  0  0  0
   10.1318   -6.3516    5.4929 H   0  0  0  0  0  0  0  0  0  0  0  0
    9.3006   -4.3675    6.6885 H   0  0  0  0  0  0  0  0  0  0  0  0
    9.3594   -5.7479    7.7957 H   0  0  0  0  0  0  0  0  0  0  0  0
  1  2  1  0
  1  8  1  0
  2  3  1  0
  2  7  1  0
  2  9  1  0
  3  4  1  0
  3 10  1  0
  3 11  1  0
  4  5  1  0
  4 12  1  0
  4 13  1  0
  5  6  1  0
  5 14  1  0
  5 15  1  0
  6  7  1  0
  6 16  1  0
  6 17  1  0
  7 18  1  0
  7 19  1  0
M  END
> <intraLJ>
-0.471    

> <intraEL>
-1.198    

> <intraDihe>
8.631     

> <interLJ>
0.000     

> <interEJ>
0.000     

> <gridLJ>
-2.086    

> <gridEL>
0.000     

> <totalE>
4.876     

> <LGFE>
-2.086  

> <LE>
-0.298  

> <SMILES>
OC1CCCCC1

> <atom.dprop.GFE>
-0.46 -0.28 -0.25 -0.26 -0.29 -0.3 -0.25 0 0 0 0 0 0 0 0 0 0 0 0

> <atom.prop.CLASS>
MEOO PRPC PRPC PRPC PRPC PRPC PRPC NCLA NCLA NCLA NCLA NCLA NCLA NCLA NCLA NCLA NCLA NCLA NCLA

$$$$
34
     RDKit          3D

 19 19  0  0  0  0  0  0  0  0999 V2000
   16.1486   10.4383  -46.7337 O   0  0  0  0  0  0  0  0  0  0  0  0
   16.6445   11.7373  -46.9555 C   0  0  0  0  0  0  0  0  0  0  0  0
   17.3506   12.2226  -45.6847 C   0  0  0  0  0  0  0  0  0  0  0  0
   17.8115   13.6828  -45.8297 C   0  0  0  0  0  0  0  0  0  0  0  0
   16.6322   14.5969  -46.1928 C   0  0  0  0  0  0  0  0  0  0  0  0
   15.9225   14.1096  -47.4652 C   0  0  0  0  0  0  0  0  0  0  0  0
   15.4672   12.6505  -47.3109 C   0  0  0  0  0  0  0  0  0  0  0  0
   16.8825    9.8619  -46.5103 H   0  0  0  0  0  0  0  0  0  0  0  0
   17.3533   11.7278  -47.7867 H   0  0  0  0  0  0  0  0  0  0  0  0
   18.2167   11.5908  -45.4857 H   0  0  0  0  0  0  0  0  0  0  0  0
   16.6606   12.1459  -44.8434 H   0  0  0  0  0  0  0  0  0  0  0  0
   18.5709   13.7467  -46.6123 H   0  0  0  0  0  0  0  0  0  0  0  0
   18.2542   14.0180  -44.8912 H   0  0  0  0  0  0  0  0  0  0  0  0
   16.9956   15.6146  -46.3464 H   0  0  0  0  0  0  0  0  0  0  0  0
   15.9189   14.6090  -45.3665 H   0  0  0  0  0  0  0  0  0  0  0  0
   16.6050   14.1889  -48.3141 H   0  0  0  0  0  0  0  0  0  0  0  0
   15.0541   14.7409  -47.6607 H   0  0  0  0  0  0  0  0  0  0  0  0
   14.7165   12.5857  -46.5213 H   0  0  0  0  0  0  0  0  0  0  0  0
   15.0186   12.3072  -48.2435 H   0  0  0  0  0  0  0  0  0  0  0  0
  1  2  1  0
  1  8  1  0
  2  3  1  0
  2  7  1  0
  2  9  1  0
  3  4  1  0
  3 10  1  0
  3 11  1  0
  4  5  1  0
  4 12  1  0
  4 13  1  0
  5  6  1  0
  5 14  1  0
  5 15  1  0
  6  7  1  0
  6 16  1  0
  6 17  1  0
  7 18  1  0
  7 19  1  0
M  END
> <intraLJ>
-0.471    

> <intraEL>
-1.198    

> <intraDihe>
8.631     

> <interLJ>
0.000     

> <interEJ>
0.000     

> <gridLJ>
-2.084    

> <gridEL>
0.000     

> <totalE>
4.878     

> <LGFE>
-2.084  

> <LE>
-0.298  

> <SMILES>
OC1CCCCC1

> <atom.dprop.GFE>
-0.47 -0.25 -0.35 -0.32 -0.21 -0.26 -0.22 0 0 0 0 0 0 0 0 0 0 0 0

> <atom.prop.CLASS>
MEOO PRPC PRPC PRPC PRPC PRPC PRPC NCLA NCLA NCLA NCLA NCLA NCLA NCLA NCLA NCLA NCLA NCLA NCLA

$$$$
34
     RDKit          3D

 19 19  0  0  0  0  0  0  0  0999 V2000
  -34.8820   -6.2974   24.1932 O   0  0  0  0  0  0  0  0  0  0  0  0
  -33.8021   -6.3307   23.2901 C   0  0  0  0  0  0  0  0  0  0  0  0
  -33.2242   -4.9176   23.1556 C   0  0  0  0  0  0  0  0  0  0  0  0
  -32.1144   -4.8714   22.0917 C   0  0  0  0  0  0  0  0  0  0  0  0
  -32.6271   -5.3923   20.7410 C   0  0  0  0  0  0  0  0  0  0  0  0
  -33.2087   -6.8077   20.8758 C   0  0  0  0  0  0  0  0  0  0  0  0
  -34.3151   -6.8437   21.9411 C   0  0  0  0  0  0  0  0  0  0  0  0
  -34.5659   -5.9764   25.0403 H   0  0  0  0  0  0  0  0  0  0  0  0
  -33.0290   -7.0083   23.6598 H   0  0  0  0  0  0  0  0  0  0  0  0
  -32.8154   -4.5986   24.1148 H   0  0  0  0  0  0  0  0  0  0  0  0
  -34.0234   -4.2323   22.8704 H   0  0  0  0  0  0  0  0  0  0  0  0
  -31.2733   -5.4867   22.4190 H   0  0  0  0  0  0  0  0  0  0  0  0
  -31.7661   -3.8446   21.9755 H   0  0  0  0  0  0  0  0  0  0  0  0
  -31.8068   -5.4034   20.0211 H   0  0  0  0  0  0  0  0  0  0  0  0
  -33.4019   -4.7201   20.3671 H   0  0  0  0  0  0  0  0  0  0  0  0
  -32.4132   -7.5017   21.1554 H   0  0  0  0  0  0  0  0  0  0  0  0
  -33.6205   -7.1237   19.9158 H   0  0  0  0  0  0  0  0  0  0  0  0
  -35.1505   -6.2199   21.6184 H   0  0  0  0  0  0  0  0  0  0  0  0
  -34.6734   -7.8664   22.0614 H   0  0  0  0  0  0  0  0  0  0  0  0
  1  2  1  0
  1  8  1  0
  2  3  1  0
  2  7  1  0
  2  9  1  0
  3  4  1  0
  3 10  1  0
  3 11  1  0
  4  5  1  0
  4 12  1  0
  4 13  1  0
  5  6  1  0
  5 14  1  0
  5 15  1  0
  6  7  1  0
  6 16  1  0
  6 17  1  0
  7 18  1  0
  7 19  1  0
M  END
> <intraLJ>
-0.471    

> <intraEL>
-1.198    

> <intraDihe>
8.631     

> <interLJ>
0.000     

> <interEJ>
0.000     

> <gridLJ>
-2.069    

> <gridEL>
0.000     

> <totalE>
4.892     

> <LGFE>
-2.069  

> <LE>
-0.296  

> <SMILES>
OC1CCCCC1

> <atom.dprop.GFE>
-0.44 -0.31 -0.29 -0.21 -0.19 -0.29 -0.34 0 0 0 0 0 0 0 0 0 0 0 0

> <atom.prop.CLASS>
MEOO PRPC PRPC PRPC PRPC PRPC PRPC NCLA NCLA NCLA NCLA NCLA NCLA NCLA NCLA NCLA NCLA NCLA NCLA

$$$$
34
     RDKit          3D

 19 19  0  0  0  0  0  0  0  0999 V2000
   -0.4730    5.2929  -38.5328 O   0  0  0  0  0  0  0  0  0  0  0  0
    0.1372    4.0437  -38.7560 C   0  0  0  0  0  0  0  0  0  0  0  0
    1.1728    3.7935  -37.6543 C   0  0  0  0  0  0  0  0  0  0  0  0
    1.9543    2.4942  -37.9127 C   0  0  0  0  0  0  0  0  0  0  0  0
    2.6139    2.5172  -39.2994 C   0  0  0  0  0  0  0  0  0  0  0  0
    1.5767    2.7705  -40.4039 C   0  0  0  0  0  0  0  0  0  0  0  0
    0.8009    4.0692  -40.1363 C   0  0  0  0  0  0  0  0  0  0  0  0
   -0.8903    5.2824  -37.6688 H   0  0  0  0  0  0  0  0  0  0  0  0
   -0.6163    3.2530  -38.7361 H   0  0  0  0  0  0  0  0  0  0  0  0
    0.6687    3.7234  -36.6899 H   0  0  0  0  0  0  0  0  0  0  0  0
    1.8700    4.6318  -37.6247 H   0  0  0  0  0  0  0  0  0  0  0  0
    1.2721    1.6433  -37.8526 H   0  0  0  0  0  0  0  0  0  0  0  0
    2.7226    2.3751  -37.1480 H   0  0  0  0  0  0  0  0  0  0  0  0
    3.1120    1.5631  -39.4803 H   0  0  0  0  0  0  0  0  0  0  0  0
    3.3669    3.3072  -39.3264 H   0  0  0  0  0  0  0  0  0  0  0  0
    0.8778    1.9322  -40.4444 H   0  0  0  0  0  0  0  0  0  0  0  0
    2.0834    2.8438  -41.3676 H   0  0  0  0  0  0  0  0  0  0  0  0
    1.4853    4.9179  -40.1856 H   0  0  0  0  0  0  0  0  0  0  0  0
    0.0327    4.1997  -40.8989 H   0  0  0  0  0  0  0  0  0  0  0  0
  1  2  1  0
  1  8  1  0
  2  3  1  0
  2  7  1  0
  2  9  1  0
  3  4  1  0
  3 10  1  0
  3 11  1  0
  4  5  1  0
  4 12  1  0
  4 13  1  0
  5  6  1  0
  5 14  1  0
  5 15  1  0
  6  7  1  0
  6 16  1  0
  6 17  1  0
  7 18  1  0
  7 19  1  0
M  END
> <intraLJ>
-0.471    

> <intraEL>
-1.198    

> <intraDihe>
8.631     

> <interLJ>
0.000     

> <interEJ>
0.000     

> <gridLJ>
-2.037    

> <gridEL>
0.000     

> <totalE>
4.925     

> <LGFE>
-2.037  

> <LE>
-0.291  

> <SMILES>
OC1CCCCC1

> <atom.dprop.GFE>
-0.27 -0.16 -0.26 -0.44 -0.46 -0.31 -0.14 0 0 0 0 0 0 0 0 0 0 0 0

> <atom.prop.CLASS>
MEOO PRPC PRPC PRPC PRPC PRPC PRPC NCLA NCLA NCLA NCLA NCLA NCLA NCLA NCLA NCLA NCLA NCLA NCLA

$$$$
34
     RDKit          3D

 19 19  0  0  0  0  0  0  0  0999 V2000
  -24.5733  -14.9107   21.4029 O   0  0  0  0  0  0  0  0  0  0  0  0
  -24.5536  -14.9080   22.8108 C   0  0  0  0  0  0  0  0  0  0  0  0
  -23.3331  -15.7008   23.2915 C   0  0  0  0  0  0  0  0  0  0  0  0
  -23.3245  -15.8301   24.8240 C   0  0  0  0  0  0  0  0  0  0  0  0
  -24.6302  -16.4614   25.3288 C   0  0  0  0  0  0  0  0  0  0  0  0
  -25.8540  -15.6686   24.8453 C   0  0  0  0  0  0  0  0  0  0  0  0
  -25.8530  -15.5440   23.3141 C   0  0  0  0  0  0  0  0  0  0  0  0
  -23.7609  -14.5134   21.0822 H   0  0  0  0  0  0  0  0  0  0  0  0
  -24.4915  -13.8817   23.1798 H   0  0  0  0  0  0  0  0  0  0  0  0
  -22.4216  -15.1969   22.9685 H   0  0  0  0  0  0  0  0  0  0  0  0
  -23.3588  -16.6967   22.8474 H   0  0  0  0  0  0  0  0  0  0  0  0
  -23.2072  -14.8400   25.2702 H   0  0  0  0  0  0  0  0  0  0  0  0
  -22.4805  -16.4489   25.1308 H   0  0  0  0  0  0  0  0  0  0  0  0
  -24.6224  -16.4883   26.4199 H   0  0  0  0  0  0  0  0  0  0  0  0
  -24.6992  -17.4871   24.9615 H   0  0  0  0  0  0  0  0  0  0  0  0
  -25.8393  -14.6714   25.2904 H   0  0  0  0  0  0  0  0  0  0  0  0
  -26.7652  -16.1762   25.1664 H   0  0  0  0  0  0  0  0  0  0  0  0
  -25.9591  -16.5349   22.8689 H   0  0  0  0  0  0  0  0  0  0  0  0
  -26.6966  -14.9303   22.9969 H   0  0  0  0  0  0  0  0  0  0  0  0
  1  2  1  0
  1  8  1  0
  2  3  1  0
  2  7  1  0
  2  9  1  0
  3  4  1  0
  3 10  1  0
  3 11  1  0
  4  5  1  0
  4 12  1  0
  4 13  1  0
  5  6  1  0
  5 14  1  0
  5 15  1  0
  6  7  1  0
  6 16  1  0
  6 17  1  0
  7 18  1  0
  7 19  1  0
M  END
> <intraLJ>
-0.471    

> <intraEL>
-1.198    

> <intraDihe>
8.631     

> <interLJ>
0.000     

> <interEJ>
0.000     

> <gridLJ>
-2.031    

> <gridEL>
0.000     

> <totalE>
4.931     

> <LGFE>
-2.031  

> <LE>
-0.290  

> <SMILES>
OC1CCCCC1

> <atom.dprop.GFE>
-0.62 -0.31 -0.29 -0.19 -0.17 -0.17 -0.28 0 0 0 0 0 0 0 0 0 0 0 0

> <atom.prop.CLASS>
MEOO PRPC PRPC PRPC PRPC PRPC PRPC NCLA NCLA NCLA NCLA NCLA NCLA NCLA NCLA NCLA NCLA NCLA NCLA

$$$$
34
     RDKit          3D

 19 19  0  0  0  0  0  0  0  0999 V2000
   10.7490    8.7787  -40.8402 O   0  0  0  0  0  0  0  0  0  0  0  0
   10.0739    9.9882  -41.0930 C   0  0  0  0  0  0  0  0  0  0  0  0
   10.8162   10.7493  -42.1971 C   0  0  0  0  0  0  0  0  0  0  0  0
   10.1891   12.1335  -42.4342 C   0  0  0  0  0  0  0  0  0  0  0  0
   10.1461   12.9467  -41.1321 C   0  0  0  0  0  0  0  0  0  0  0  0
    9.4043   12.1834  -40.0244 C   0  0  0  0  0  0  0  0  0  0  0  0
   10.0372   10.8022  -39.7960 C   0  0  0  0  0  0  0  0  0  0  0  0
   10.7750    8.2648  -41.6500 H   0  0  0  0  0  0  0  0  0  0  0  0
    9.0505    9.7825  -41.4153 H   0  0  0  0  0  0  0  0  0  0  0  0
   10.7790   10.1749  -43.1232 H   0  0  0  0  0  0  0  0  0  0  0  0
   11.8593   10.8733  -41.9037 H   0  0  0  0  0  0  0  0  0  0  0  0
    9.1729   12.0102  -42.8153 H   0  0  0  0  0  0  0  0  0  0  0  0
   10.7740   12.6736  -43.1795 H   0  0  0  0  0  0  0  0  0  0  0  0
    9.6454   13.8991  -41.3153 H   0  0  0  0  0  0  0  0  0  0  0  0
   11.1664   13.1539  -40.8037 H   0  0  0  0  0  0  0  0  0  0  0  0
    8.3568   12.0601  -40.3078 H   0  0  0  0  0  0  0  0  0  0  0  0
    9.4456   12.7580  -39.0976 H   0  0  0  0  0  0  0  0  0  0  0  0
   11.0563   10.9263  -39.4257 H   0  0  0  0  0  0  0  0  0  0  0  0
    9.4617   10.2558  -39.0483 H   0  0  0  0  0  0  0  0  0  0  0  0
  1  2  1  0
  1  8  1  0
  2  3  1  0
  2  7  1  0
  2  9  1  0
  3  4  1  0
  3 10  1  0
  3 11  1  0
  4  5  1  0
  4 12  1  0
  4 13  1  0
  5  6  1  0
  5 14  1  0
  5 15  1  0
  6  7  1  0
  6 16  1  0
  6 17  1  0
  7 18  1  0
  7 19  1  0
M  END
> <intraLJ>
-0.471    

> <intraEL>
-1.198    

> <intraDihe>
8.631     

> <interLJ>
0.000     

> <interEJ>
0.000     

> <gridLJ>
-2.013    

> <gridEL>
0.000     

> <totalE>
4.949     

> <LGFE>
-2.013  

> <LE>
-0.288  

> <SMILES>
OC1CCCCC1

> <atom.dprop.GFE>
-0.87 -0.27 -0.13 -0.17 -0.22 -0.17 -0.19 0 0 0 0 0 0 0 0 0 0 0 0

> <atom.prop.CLASS>
MEOO PRPC PRPC PRPC PRPC PRPC PRPC NCLA NCLA NCLA NCLA NCLA NCLA NCLA NCLA NCLA NCLA NCLA NCLA

$$$$
34
     RDKit          3D

 19 19  0  0  0  0  0  0  0  0999 V2000
    2.7337   13.4599   10.3149 O   0  0  0  0  0  0  0  0  0  0  0  0
    1.4024   13.5611    9.8678 C   0  0  0  0  0  0  0  0  0  0  0  0
    0.7493   12.1762    9.9366 C   0  0  0  0  0  0  0  0  0  0  0  0
   -0.6721   12.2037    9.3497 C   0  0  0  0  0  0  0  0  0  0  0  0
   -0.6614   12.7413    7.9112 C   0  0  0  0  0  0  0  0  0  0  0  0
   -0.0047   14.1283    7.8412 C   0  0  0  0  0  0  0  0  0  0  0  0
    1.4135   14.0907    8.4306 C   0  0  0  0  0  0  0  0  0  0  0  0
    2.7325   13.1281   11.2151 H   0  0  0  0  0  0  0  0  0  0  0  0
    0.8493   14.2581   10.5015 H   0  0  0  0  0  0  0  0  0  0  0  0
    0.7026   11.8470   10.9751 H   0  0  0  0  0  0  0  0  0  0  0  0
    1.3571   11.4681    9.3720 H   0  0  0  0  0  0  0  0  0  0  0  0
   -1.3068   12.8423    9.9681 H   0  0  0  0  0  0  0  0  0  0  0  0
   -1.0866   11.1950    9.3565 H   0  0  0  0  0  0  0  0  0  0  0  0
   -1.6858   12.8049    7.5398 H   0  0  0  0  0  0  0  0  0  0  0  0
   -0.1081   12.0497    7.2730 H   0  0  0  0  0  0  0  0  0  0  0  0
   -0.6107   14.8452    8.3994 H   0  0  0  0  0  0  0  0  0  0  0  0
    0.0443   14.4544    6.8009 H   0  0  0  0  0  0  0  0  0  0  0  0
    2.0442   13.4437    7.8185 H   0  0  0  0  0  0  0  0  0  0  0  0
    1.8387   15.0947    8.4239 H   0  0  0  0  0  0  0  0  0  0  0  0
  1  2  1  0
  1  8  1  0
  2  3  1  0
  2  7  1  0
  2  9  1  0
  3  4  1  0
  3 10  1  0
  3 11  1  0
  4  5  1  0
  4 12  1  0
  4 13  1  0
  5  6  1  0
  5 14  1  0
  5 15  1  0
  6  7  1  0
  6 16  1  0
  6 17  1  0
  7 18  1  0
  7 19  1  0
M  END
> <intraLJ>
-0.471    

> <intraEL>
-1.198    

> <intraDihe>
8.631     

> <interLJ>
0.000     

> <interEJ>
0.000     

> <gridLJ>
-2.013    

> <gridEL>
0.000     

> <totalE>
4.949     

> <LGFE>
-2.013  

> <LE>
-0.288  

> <SMILES>
OC1CCCCC1

> <atom.dprop.GFE>
-0.27 -0.22 -0.27 -0.37 -0.31 -0.32 -0.26 0 0 0 0 0 0 0 0 0 0 0 0

> <atom.prop.CLASS>
MEOO PRPC PRPC PRPC PRPC PRPC PRPC NCLA NCLA NCLA NCLA NCLA NCLA NCLA NCLA NCLA NCLA NCLA NCLA

$$$$
34
     RDKit          3D

 19 19  0  0  0  0  0  0  0  0999 V2000
   -5.4645   -7.4681    2.3814 O   0  0  0  0  0  0  0  0  0  0  0  0
   -5.1453   -8.7842    2.7671 C   0  0  0  0  0  0  0  0  0  0  0  0
   -4.1149   -8.7329    3.9006 C   0  0  0  0  0  0  0  0  0  0  0  0
   -3.6414  -10.1452    4.2837 C   0  0  0  0  0  0  0  0  0  0  0  0
   -3.0843  -10.8879    3.0604 C   0  0  0  0  0  0  0  0  0  0  0  0
   -4.1158  -10.9374    1.9231 C   0  0  0  0  0  0  0  0  0  0  0  0
   -4.5832   -9.5227    1.5486 C   0  0  0  0  0  0  0  0  0  0  0  0
   -5.8170   -7.0008    3.1416 H   0  0  0  0  0  0  0  0  0  0  0  0
   -6.0446   -9.2985    3.1135 H   0  0  0  0  0  0  0  0  0  0  0  0
   -4.5581   -8.2536    4.7740 H   0  0  0  0  0  0  0  0  0  0  0  0
   -3.2573   -8.1429    3.5749 H   0  0  0  0  0  0  0  0  0  0  0  0
   -4.4812  -10.7093    4.6957 H   0  0  0  0  0  0  0  0  0  0  0  0
   -2.8665  -10.0730    5.0476 H   0  0  0  0  0  0  0  0  0  0  0  0
   -2.8099  -11.9047    3.3469 H   0  0  0  0  0  0  0  0  0  0  0  0
   -2.1860  -10.3772    2.7081 H   0  0  0  0  0  0  0  0  0  0  0  0
   -4.9758  -11.5319    2.2390 H   0  0  0  0  0  0  0  0  0  0  0  0
   -3.6693  -11.4142    1.0488 H   0  0  0  0  0  0  0  0  0  0  0  0
   -3.7410   -8.9562    1.1473 H   0  0  0  0  0  0  0  0  0  0  0  0
   -5.3555   -9.5842    0.7814 H   0  0  0  0  0  0  0  0  0  0  0  0
  1  2  1  0
  1  8  1  0
  2  3  1  0
  2  7  1  0
  2  9  1  0
  3  4  1  0
  3 10  1  0
  3 11  1  0
  4  5  1  0
  4 12  1  0
  4 13  1  0
  5  6  1  0
  5 14  1  0
  5 15  1  0
  6  7  1  0
  6 16  1  0
  6 17  1  0
  7 18  1  0
  7 19  1  0
M  END
> <intraLJ>
-0.471    

> <intraEL>
-1.198    

> <intraDihe>
8.631     

> <interLJ>
0.000     

> <interEJ>
0.000     

> <gridLJ>
-2.035    

> <gridEL>
0.000     

> <totalE>
4.927     

> <LGFE>
-2.035  

> <LE>
-0.291  

> <SMILES>
OC1CCCCC1

> <atom.dprop.GFE>
-1.2 -0.21 -0.13 -0.033 -0.12 -0.21 -0.11 0 0 0 0 0 0 0 0 0 0 0 0

> <atom.prop.CLASS>
MEOO PRPC PRPC PRPC PRPC PRPC PRPC NCLA NCLA NCLA NCLA NCLA NCLA NCLA NCLA NCLA NCLA NCLA NCLA

$$$$
