4
     RDKit          3D

 13 13  0  0  0  0  0  0  0  0999 V2000
    1.9025   -2.4981   -6.5722 O   0  0  0  0  0  0  0  0  0  0  0  0
    0.9980   -1.9620   -5.5887 C   0  0  0  0  0  0  0  0  0  0  0  0
    1.7058   -2.2146   -4.2483 C   0  0  0  0  0  0  0  0  0  0  0  0
    1.5169   -3.5756   -3.6454 C   0  0  0  0  0  0  0  0  0  0  0  0
    0.8123   -2.3762   -3.0539 C   0  0  0  0  0  0  0  0  0  0  0  0
    1.5299   -2.4109   -7.4644 H   0  0  0  0  0  0  0  0  0  0  0  0
    0.0580   -2.4963   -5.6224 H   0  0  0  0  0  0  0  0  0  0  0  0
    0.8911   -0.8942   -5.7330 H   0  0  0  0  0  0  0  0  0  0  0  0
    2.6623   -1.7229   -4.1251 H   0  0  0  0  0  0  0  0  0  0  0  0
    2.3568   -3.9718   -3.0896 H   0  0  0  0  0  0  0  0  0  0  0  0
    0.9105   -4.2797   -4.2007 H   0  0  0  0  0  0  0  0  0  0  0  0
   -0.2557   -2.3147   -3.2157 H   0  0  0  0  0  0  0  0  0  0  0  0
    1.1974   -2.0085   -2.1112 H   0  0  0  0  0  0  0  0  0  0  0  0
  1  2  1  0
  1  6  1  0
  2  3  1  0
  2  7  1  0
  2  8  1  0
  3  4  1  0
  3  5  1  0
  3  9  1  0
  4  5  1  0
  4 10  1  0
  4 11  1  0
  5 12  1  0
  5 13  1  0
M  END
> <intraLJ>
-0.264    

> <intraEL>
1.551     

> <intraDihe>
2.184     

> <interLJ>
0.000     

> <interEJ>
0.000     

> <gridLJ>
-3.848    

> <gridEL>
0.000     

> <totalE>
-0.377    

> <LGFE>
-3.848  

> <LE>
-0.770  

> <SMILES>
OCC1CC1

> <atom.dprop.GFE>
-1.8 -0.57 -0.58 -0.51 -0.39 0 0 0 0 0 0 0 0

> <atom.prop.CLASS>
MEOO PRPC PRPC PRPC PRPC NCLA NCLA NCLA NCLA NCLA NCLA NCLA NCLA

$$$$
4
     RDKit          3D

 13 13  0  0  0  0  0  0  0  0999 V2000
  -15.5766    6.9087   -0.7743 O   0  0  0  0  0  0  0  0  0  0  0  0
  -16.4257    6.1517   -1.6567 C   0  0  0  0  0  0  0  0  0  0  0  0
  -16.7280    7.1197   -2.8113 C   0  0  0  0  0  0  0  0  0  0  0  0
  -17.8546    8.0855   -2.5885 C   0  0  0  0  0  0  0  0  0  0  0  0
  -18.0332    6.9089   -3.5206 C   0  0  0  0  0  0  0  0  0  0  0  0
  -15.3479    6.3876    0.0122 H   0  0  0  0  0  0  0  0  0  0  0  0
  -17.3401    5.8809   -1.1459 H   0  0  0  0  0  0  0  0  0  0  0  0
  -15.8824    5.3001   -2.0463 H   0  0  0  0  0  0  0  0  0  0  0  0
  -15.8689    7.4502   -3.3809 H   0  0  0  0  0  0  0  0  0  0  0  0
  -17.7455    9.0596   -3.0472 H   0  0  0  0  0  0  0  0  0  0  0  0
  -18.3607    8.0389   -1.6327 H   0  0  0  0  0  0  0  0  0  0  0  0
  -18.6695    6.1071   -3.1703 H   0  0  0  0  0  0  0  0  0  0  0  0
  -18.0471    7.1320   -4.5799 H   0  0  0  0  0  0  0  0  0  0  0  0
  1  2  1  0
  1  6  1  0
  2  3  1  0
  2  7  1  0
  2  8  1  0
  3  4  1  0
  3  5  1  0
  3  9  1  0
  4  5  1  0
  4 10  1  0
  4 11  1  0
  5 12  1  0
  5 13  1  0
M  END
> <intraLJ>
-0.265    

> <intraEL>
1.552     

> <intraDihe>
2.184     

> <interLJ>
0.000     

> <interEJ>
0.000     

> <gridLJ>
-3.809    

> <gridEL>
0.000     

> <totalE>
-0.338    

> <LGFE>
-3.809  

> <LE>
-0.762  

> <SMILES>
OCC1CC1

> <atom.dprop.GFE>
-1.6 -0.51 -0.59 -0.51 -0.58 0 0 0 0 0 0 0 0

> <atom.prop.CLASS>
MEOO PRPC PRPC PRPC PRPC NCLA NCLA NCLA NCLA NCLA NCLA NCLA NCLA

$$$$
4
     RDKit          3D

 13 13  0  0  0  0  0  0  0  0999 V2000
  -19.1911    5.7077    7.3589 O   0  0  0  0  0  0  0  0  0  0  0  0
  -18.2570    4.6285    7.5483 C   0  0  0  0  0  0  0  0  0  0  0  0
  -17.0685    4.9961    6.6462 C   0  0  0  0  0  0  0  0  0  0  0  0
  -15.7263    4.4806    7.0757 C   0  0  0  0  0  0  0  0  0  0  0  0
  -16.0662    5.9449    7.2344 C   0  0  0  0  0  0  0  0  0  0  0  0
  -20.0004    5.5548    7.8728 H   0  0  0  0  0  0  0  0  0  0  0  0
  -18.6997    3.6965    7.2233 H   0  0  0  0  0  0  0  0  0  0  0  0
  -17.9229    4.6099    8.5781 H   0  0  0  0  0  0  0  0  0  0  0  0
  -17.2857    5.0526    5.5872 H   0  0  0  0  0  0  0  0  0  0  0  0
  -15.0381    4.2223    6.2814 H   0  0  0  0  0  0  0  0  0  0  0  0
  -15.6950    3.8810    7.9765 H   0  0  0  0  0  0  0  0  0  0  0  0
  -16.2397    6.2942    8.2436 H   0  0  0  0  0  0  0  0  0  0  0  0
  -15.5867    6.6276    6.5444 H   0  0  0  0  0  0  0  0  0  0  0  0
  1  2  1  0
  1  6  1  0
  2  3  1  0
  2  7  1  0
  2  8  1  0
  3  4  1  0
  3  5  1  0
  3  9  1  0
  4  5  1  0
  4 10  1  0
  4 11  1  0
  5 12  1  0
  5 13  1  0
M  END
> <intraLJ>
-0.233    

> <intraEL>
1.558     

> <intraDihe>
2.185     

> <interLJ>
0.000     

> <interEJ>
0.000     

> <gridLJ>
-3.489    

> <gridEL>
0.000     

> <totalE>
0.021     

> <LGFE>
-3.489  

> <LE>
-0.698  

> <SMILES>
OCC1CC1

> <atom.dprop.GFE>
-1 -0.58 -0.58 -0.68 -0.6 0 0 0 0 0 0 0 0

> <atom.prop.CLASS>
MEOO PRPC PRPC PRPC PRPC NCLA NCLA NCLA NCLA NCLA NCLA NCLA NCLA

$$$$
4
     RDKit          3D

 13 13  0  0  0  0  0  0  0  0999 V2000
   -1.4361   14.6155   -2.4425 O   0  0  0  0  0  0  0  0  0  0  0  0
   -2.2576   13.7526   -1.6341 C   0  0  0  0  0  0  0  0  0  0  0  0
   -3.3457   14.6829   -1.0755 C   0  0  0  0  0  0  0  0  0  0  0  0
   -2.9845   15.4605    0.1560 C   0  0  0  0  0  0  0  0  0  0  0  0
   -3.9328   14.2869    0.2471 C   0  0  0  0  0  0  0  0  0  0  0  0
   -0.6925   14.1219   -2.8245 H   0  0  0  0  0  0  0  0  0  0  0  0
   -1.6709   13.3354   -0.8267 H   0  0  0  0  0  0  0  0  0  0  0  0
   -2.7251   13.0017   -2.2586 H   0  0  0  0  0  0  0  0  0  0  0  0
   -3.9841   15.1512   -1.8137 H   0  0  0  0  0  0  0  0  0  0  0  0
   -3.4195   16.4477    0.2414 H   0  0  0  0  0  0  0  0  0  0  0  0
   -1.9865   15.3201    0.5512 H   0  0  0  0  0  0  0  0  0  0  0  0
   -3.5494   13.3910    0.7170 H   0  0  0  0  0  0  0  0  0  0  0  0
   -4.9781   14.5238    0.4003 H   0  0  0  0  0  0  0  0  0  0  0  0
  1  2  1  0
  1  6  1  0
  2  3  1  0
  2  7  1  0
  2  8  1  0
  3  4  1  0
  3  5  1  0
  3  9  1  0
  4  5  1  0
  4 10  1  0
  4 11  1  0
  5 12  1  0
  5 13  1  0
M  END
> <intraLJ>
-0.265    

> <intraEL>
1.552     

> <intraDihe>
2.184     

> <interLJ>
0.000     

> <interEJ>
0.000     

> <gridLJ>
-3.354    

> <gridEL>
0.000     

> <totalE>
0.117     

> <LGFE>
-3.354  

> <LE>
-0.671  

> <SMILES>
OCC1CC1

> <atom.dprop.GFE>
-0.73 -0.72 -0.66 -0.6 -0.66 0 0 0 0 0 0 0 0

> <atom.prop.CLASS>
MEOO PRPC PRPC PRPC PRPC NCLA NCLA NCLA NCLA NCLA NCLA NCLA NCLA

$$$$
4
     RDKit          3D

 13 13  0  0  0  0  0  0  0  0999 V2000
  -25.0854    6.2242   21.9985 O   0  0  0  0  0  0  0  0  0  0  0  0
  -25.8671    5.0226   21.8649 C   0  0  0  0  0  0  0  0  0  0  0  0
  -26.6384    5.2188   20.5503 C   0  0  0  0  0  0  0  0  0  0  0  0
  -27.9113    6.0081   20.6404 C   0  0  0  0  0  0  0  0  0  0  0  0
  -27.9565    4.5092   20.4500 C   0  0  0  0  0  0  0  0  0  0  0  0
  -24.5747    6.2111   22.8239 H   0  0  0  0  0  0  0  0  0  0  0  0
  -26.5564    4.9372   22.6943 H   0  0  0  0  0  0  0  0  0  0  0  0
  -25.2103    4.1680   21.7619 H   0  0  0  0  0  0  0  0  0  0  0  0
  -26.0287    5.3209   19.6617 H   0  0  0  0  0  0  0  0  0  0  0  0
  -28.1567    6.6173   19.7802 H   0  0  0  0  0  0  0  0  0  0  0  0
  -28.1853    6.3900   21.6156 H   0  0  0  0  0  0  0  0  0  0  0  0
  -28.2757    3.9233   21.3015 H   0  0  0  0  0  0  0  0  0  0  0  0
  -28.2404    4.1576   19.4661 H   0  0  0  0  0  0  0  0  0  0  0  0
  1  2  1  0
  1  6  1  0
  2  3  1  0
  2  7  1  0
  2  8  1  0
  3  4  1  0
  3  5  1  0
  3  9  1  0
  4  5  1  0
  4 10  1  0
  4 11  1  0
  5 12  1  0
  5 13  1  0
M  END
> <intraLJ>
-0.264    

> <intraEL>
1.551     

> <intraDihe>
2.184     

> <interLJ>
0.000     

> <interEJ>
0.000     

> <gridLJ>
-3.352    

> <gridEL>
0.000     

> <totalE>
0.119     

> <LGFE>
-3.352  

> <LE>
-0.670  

> <SMILES>
OCC1CC1

> <atom.dprop.GFE>
-2 -0.29 -0.39 -0.35 -0.28 0 0 0 0 0 0 0 0

> <atom.prop.CLASS>
MEOO PRPC PRPC PRPC PRPC NCLA NCLA NCLA NCLA NCLA NCLA NCLA NCLA

$$$$
4
     RDKit          3D

 13 13  0  0  0  0  0  0  0  0999 V2000
    6.4266   -5.1780    1.3663 O   0  0  0  0  0  0  0  0  0  0  0  0
    7.7719   -4.8878    1.7891 C   0  0  0  0  0  0  0  0  0  0  0  0
    7.9086   -5.6141    3.1365 C   0  0  0  0  0  0  0  0  0  0  0  0
    7.3989   -4.8780    4.3406 C   0  0  0  0  0  0  0  0  0  0  0  0
    8.8857   -5.0191    4.1072 C   0  0  0  0  0  0  0  0  0  0  0  0
    6.2286   -4.7356    0.5252 H   0  0  0  0  0  0  0  0  0  0  0  0
    7.8939   -3.8214    1.9244 H   0  0  0  0  0  0  0  0  0  0  0  0
    8.4767   -5.3156    1.0872 H   0  0  0  0  0  0  0  0  0  0  0  0
    7.7932   -6.6898    3.1012 H   0  0  0  0  0  0  0  0  0  0  0  0
    6.9677   -5.4868    5.1246 H   0  0  0  0  0  0  0  0  0  0  0  0
    6.9636   -3.9012    4.1722 H   0  0  0  0  0  0  0  0  0  0  0  0
    9.4139   -4.1257    3.8017 H   0  0  0  0  0  0  0  0  0  0  0  0
    9.4097   -5.7148    4.7503 H   0  0  0  0  0  0  0  0  0  0  0  0
  1  2  1  0
  1  6  1  0
  2  3  1  0
  2  7  1  0
  2  8  1  0
  3  4  1  0
  3  5  1  0
  3  9  1  0
  4  5  1  0
  4 10  1  0
  4 11  1  0
  5 12  1  0
  5 13  1  0
M  END
> <intraLJ>
-0.264    

> <intraEL>
1.551     

> <intraDihe>
2.184     

> <interLJ>
0.000     

> <interEJ>
0.000     

> <gridLJ>
-3.202    

> <gridEL>
0.000     

> <totalE>
0.269     

> <LGFE>
-3.202  

> <LE>
-0.640  

> <SMILES>
OCC1CC1

> <atom.dprop.GFE>
-1.1 -0.6 -0.59 -0.49 -0.41 0 0 0 0 0 0 0 0

> <atom.prop.CLASS>
MEOO PRPC PRPC PRPC PRPC NCLA NCLA NCLA NCLA NCLA NCLA NCLA NCLA

$$$$
4
     RDKit          3D

 13 13  0  0  0  0  0  0  0  0999 V2000
   21.8713   14.1733   -3.6895 O   0  0  0  0  0  0  0  0  0  0  0  0
   21.4051   15.0546   -4.7282 C   0  0  0  0  0  0  0  0  0  0  0  0
   19.9057   15.2217   -4.4359 C   0  0  0  0  0  0  0  0  0  0  0  0
   19.0014   14.1560   -4.9819 C   0  0  0  0  0  0  0  0  0  0  0  0
   19.0357   15.5261   -5.6197 C   0  0  0  0  0  0  0  0  0  0  0  0
   22.8161   13.9804   -3.8019 H   0  0  0  0  0  0  0  0  0  0  0  0
   21.5488   14.5924   -5.6957 H   0  0  0  0  0  0  0  0  0  0  0  0
   21.8898   16.0183   -4.6357 H   0  0  0  0  0  0  0  0  0  0  0  0
   19.6629   15.6650   -3.4786 H   0  0  0  0  0  0  0  0  0  0  0  0
   18.1310   13.9170   -4.3847 H   0  0  0  0  0  0  0  0  0  0  0  0
   19.4689   13.3462   -5.5273 H   0  0  0  0  0  0  0  0  0  0  0  0
   19.5140   15.5969   -6.5875 H   0  0  0  0  0  0  0  0  0  0  0  0
   18.1797   16.1634   -5.4370 H   0  0  0  0  0  0  0  0  0  0  0  0
  1  2  1  0
  1  6  1  0
  2  3  1  0
  2  7  1  0
  2  8  1  0
  3  4  1  0
  3  5  1  0
  3  9  1  0
  4  5  1  0
  4 10  1  0
  4 11  1  0
  5 12  1  0
  5 13  1  0
M  END
> <intraLJ>
-0.262    

> <intraEL>
1.549     

> <intraDihe>
2.183     

> <interLJ>
0.000     

> <interEJ>
0.000     

> <gridLJ>
-3.126    

> <gridEL>
0.000     

> <totalE>
0.345     

> <LGFE>
-3.126  

> <LE>
-0.625  

> <SMILES>
OCC1CC1

> <atom.dprop.GFE>
-0.62 -0.63 -0.59 -0.67 -0.62 0 0 0 0 0 0 0 0

> <atom.prop.CLASS>
MEOO PRPC PRPC PRPC PRPC NCLA NCLA NCLA NCLA NCLA NCLA NCLA NCLA

$$$$
4
     RDKit          3D

 13 13  0  0  0  0  0  0  0  0999 V2000
  -23.4016    2.5017    5.3482 O   0  0  0  0  0  0  0  0  0  0  0  0
  -22.7827    3.6845    4.8089 C   0  0  0  0  0  0  0  0  0  0  0  0
  -22.7775    3.4484    3.2905 C   0  0  0  0  0  0  0  0  0  0  0  0
  -22.8199    4.6762    2.4288 C   0  0  0  0  0  0  0  0  0  0  0  0
  -24.0439    3.8000    2.5668 C   0  0  0  0  0  0  0  0  0  0  0  0
  -23.4286    2.5405    6.3178 H   0  0  0  0  0  0  0  0  0  0  0  0
  -21.7694    3.7712    5.1779 H   0  0  0  0  0  0  0  0  0  0  0  0
  -23.3953    4.5502    5.0270 H   0  0  0  0  0  0  0  0  0  0  0  0
  -22.1983    2.5989    2.9517 H   0  0  0  0  0  0  0  0  0  0  0  0
  -22.2820    4.6197    1.4914 H   0  0  0  0  0  0  0  0  0  0  0  0
  -22.8381    5.6324    2.9358 H   0  0  0  0  0  0  0  0  0  0  0  0
  -24.8608    4.1996    3.1527 H   0  0  0  0  0  0  0  0  0  0  0  0
  -24.2955    3.1867    1.7108 H   0  0  0  0  0  0  0  0  0  0  0  0
  1  2  1  0
  1  6  1  0
  2  3  1  0
  2  7  1  0
  2  8  1  0
  3  4  1  0
  3  5  1  0
  3  9  1  0
  4  5  1  0
  4 10  1  0
  4 11  1  0
  5 12  1  0
  5 13  1  0
M  END
> <intraLJ>
-0.233    

> <intraEL>
1.558     

> <intraDihe>
2.185     

> <interLJ>
0.000     

> <interEJ>
0.000     

> <gridLJ>
-3.110    

> <gridEL>
0.000     

> <totalE>
0.400     

> <LGFE>
-3.110  

> <LE>
-0.622  

> <SMILES>
OCC1CC1

> <atom.dprop.GFE>
-1.1 -0.4 -0.56 -0.53 -0.5 0 0 0 0 0 0 0 0

> <atom.prop.CLASS>
MEOO PRPC PRPC PRPC PRPC NCLA NCLA NCLA NCLA NCLA NCLA NCLA NCLA

$$$$
4
     RDKit          3D

 13 13  0  0  0  0  0  0  0  0999 V2000
  -21.3083    2.4645   22.4209 O   0  0  0  0  0  0  0  0  0  0  0  0
  -20.9477    1.3074   23.1981 C   0  0  0  0  0  0  0  0  0  0  0  0
  -19.9495    0.5512   22.3075 C   0  0  0  0  0  0  0  0  0  0  0  0
  -18.9386   -0.2991   23.0192 C   0  0  0  0  0  0  0  0  0  0  0  0
  -18.5227    1.0085   22.3850 C   0  0  0  0  0  0  0  0  0  0  0  0
  -21.9657    3.0021   22.8911 H   0  0  0  0  0  0  0  0  0  0  0  0
  -21.8230    0.6984   23.3804 H   0  0  0  0  0  0  0  0  0  0  0  0
  -20.4434    1.6179   24.1046 H   0  0  0  0  0  0  0  0  0  0  0  0
  -20.3389    0.2058   21.3582 H   0  0  0  0  0  0  0  0  0  0  0  0
  -18.6362   -1.2060   22.5118 H   0  0  0  0  0  0  0  0  0  0  0  0
  -18.9935   -0.3277   24.0999 H   0  0  0  0  0  0  0  0  0  0  0  0
  -18.2937    1.8220   23.0604 H   0  0  0  0  0  0  0  0  0  0  0  0
  -17.9442    0.9381   21.4725 H   0  0  0  0  0  0  0  0  0  0  0  0
  1  2  1  0
  1  6  1  0
  2  3  1  0
  2  7  1  0
  2  8  1  0
  3  4  1  0
  3  5  1  0
  3  9  1  0
  4  5  1  0
  4 10  1  0
  4 11  1  0
  5 12  1  0
  5 13  1  0
M  END
> <intraLJ>
-0.229    

> <intraEL>
1.555     

> <intraDihe>
2.184     

> <interLJ>
0.000     

> <interEJ>
0.000     

> <gridLJ>
-3.025    

> <gridEL>
0.000     

> <totalE>
0.484     

> <LGFE>
-3.025  

> <LE>
-0.605  

> <SMILES>
OCC1CC1

> <atom.dprop.GFE>
-1.4 -0.24 -0.38 -0.48 -0.5 0 0 0 0 0 0 0 0

> <atom.prop.CLASS>
MEOO PRPC PRPC PRPC PRPC NCLA NCLA NCLA NCLA NCLA NCLA NCLA NCLA

$$$$
4
     RDKit          3D

 13 13  0  0  0  0  0  0  0  0999 V2000
  -39.5955    7.0402   22.3111 O   0  0  0  0  0  0  0  0  0  0  0  0
  -39.8805    6.2434   21.1462 C   0  0  0  0  0  0  0  0  0  0  0  0
  -39.1501    6.9688   20.0053 C   0  0  0  0  0  0  0  0  0  0  0  0
  -39.8833    8.1146   19.3720 C   0  0  0  0  0  0  0  0  0  0  0  0
  -39.7408    6.8018   18.6363 C   0  0  0  0  0  0  0  0  0  0  0  0
  -40.0408    6.6760   23.0930 H   0  0  0  0  0  0  0  0  0  0  0  0
  -40.9461    6.2304   20.9602 H   0  0  0  0  0  0  0  0  0  0  0  0
  -39.4526    5.2558   21.2645 H   0  0  0  0  0  0  0  0  0  0  0  0
  -38.0746    7.0368   20.1078 H   0  0  0  0  0  0  0  0  0  0  0  0
  -39.2727    8.9379   19.0246 H   0  0  0  0  0  0  0  0  0  0  0  0
  -40.8611    8.3532   19.7704 H   0  0  0  0  0  0  0  0  0  0  0  0
  -40.6343    6.1985   18.5468 H   0  0  0  0  0  0  0  0  0  0  0  0
  -39.0425    6.7873   17.8091 H   0  0  0  0  0  0  0  0  0  0  0  0
  1  2  1  0
  1  6  1  0
  2  3  1  0
  2  7  1  0
  2  8  1  0
  3  4  1  0
  3  5  1  0
  3  9  1  0
  4  5  1  0
  4 10  1  0
  4 11  1  0
  5 12  1  0
  5 13  1  0
M  END
> <intraLJ>
-0.264    

> <intraEL>
1.551     

> <intraDihe>
2.184     

> <interLJ>
0.000     

> <interEJ>
0.000     

> <gridLJ>
-2.949    

> <gridEL>
0.000     

> <totalE>
0.522     

> <LGFE>
-2.949  

> <LE>
-0.590  

> <SMILES>
OCC1CC1

> <atom.dprop.GFE>
-0.65 -0.6 -0.61 -0.55 -0.53 0 0 0 0 0 0 0 0

> <atom.prop.CLASS>
MEOO PRPC PRPC PRPC PRPC NCLA NCLA NCLA NCLA NCLA NCLA NCLA NCLA

$$$$
4
     RDKit          3D

 13 13  0  0  0  0  0  0  0  0999 V2000
   18.0306   -1.5334  -36.1670 O   0  0  0  0  0  0  0  0  0  0  0  0
   17.7520   -2.6766  -35.3373 C   0  0  0  0  0  0  0  0  0  0  0  0
   17.8139   -2.1262  -33.9039 C   0  0  0  0  0  0  0  0  0  0  0  0
   16.9809   -2.8431  -32.8823 C   0  0  0  0  0  0  0  0  0  0  0  0
   16.5582   -1.4843  -33.3920 C   0  0  0  0  0  0  0  0  0  0  0  0
   18.0418   -1.7847  -37.1046 H   0  0  0  0  0  0  0  0  0  0  0  0
   18.5135   -3.4313  -35.4819 H   0  0  0  0  0  0  0  0  0  0  0  0
   16.7490   -3.0348  -35.5323 H   0  0  0  0  0  0  0  0  0  0  0  0
   18.7711   -1.7226  -33.5994 H   0  0  0  0  0  0  0  0  0  0  0  0
   17.3866   -2.8841  -31.8798 H   0  0  0  0  0  0  0  0  0  0  0  0
   16.4109   -3.6975  -33.2242 H   0  0  0  0  0  0  0  0  0  0  0  0
   15.7024   -1.4610  -34.0534 H   0  0  0  0  0  0  0  0  0  0  0  0
   16.6858   -0.6534  -32.7096 H   0  0  0  0  0  0  0  0  0  0  0  0
  1  2  1  0
  1  6  1  0
  2  3  1  0
  2  7  1  0
  2  8  1  0
  3  4  1  0
  3  5  1  0
  3  9  1  0
  4  5  1  0
  4 10  1  0
  4 11  1  0
  5 12  1  0
  5 13  1  0
M  END
> <intraLJ>
-0.230    

> <intraEL>
1.555     

> <intraDihe>
2.184     

> <interLJ>
0.000     

> <interEJ>
0.000     

> <gridLJ>
-2.950    

> <gridEL>
0.000     

> <totalE>
0.560     

> <LGFE>
-2.950  

> <LE>
-0.590  

> <SMILES>
OCC1CC1

> <atom.dprop.GFE>
-1.1 -0.42 -0.49 -0.42 -0.49 0 0 0 0 0 0 0 0

> <atom.prop.CLASS>
MEOO PRPC PRPC PRPC PRPC NCLA NCLA NCLA NCLA NCLA NCLA NCLA NCLA

$$$$
4
     RDKit          3D

 13 13  0  0  0  0  0  0  0  0999 V2000
   -7.5660   11.6573   -4.5987 O   0  0  0  0  0  0  0  0  0  0  0  0
   -7.4504   12.1228   -5.9562 C   0  0  0  0  0  0  0  0  0  0  0  0
   -7.4252   10.8356   -6.7953 C   0  0  0  0  0  0  0  0  0  0  0  0
   -6.0893   10.1689   -6.9458 C   0  0  0  0  0  0  0  0  0  0  0  0
   -6.7006   10.9204   -8.1063 C   0  0  0  0  0  0  0  0  0  0  0  0
   -7.5629   12.4042   -3.9786 H   0  0  0  0  0  0  0  0  0  0  0  0
   -6.5251   12.6693   -6.0808 H   0  0  0  0  0  0  0  0  0  0  0  0
   -8.3285   12.6976   -6.2222 H   0  0  0  0  0  0  0  0  0  0  0  0
   -8.3081   10.2136   -6.7231 H   0  0  0  0  0  0  0  0  0  0  0  0
   -6.0995    9.0883   -7.0041 H   0  0  0  0  0  0  0  0  0  0  0  0
   -5.2489   10.6328   -6.4456 H   0  0  0  0  0  0  0  0  0  0  0  0
   -6.2425   11.8657   -8.3650 H   0  0  0  0  0  0  0  0  0  0  0  0
   -7.0958   10.3183   -8.9147 H   0  0  0  0  0  0  0  0  0  0  0  0
  1  2  1  0
  1  6  1  0
  2  3  1  0
  2  7  1  0
  2  8  1  0
  3  4  1  0
  3  5  1  0
  3  9  1  0
  4  5  1  0
  4 10  1  0
  4 11  1  0
  5 12  1  0
  5 13  1  0
M  END
> <intraLJ>
-0.262    

> <intraEL>
1.549     

> <intraDihe>
2.183     

> <interLJ>
0.000     

> <interEJ>
0.000     

> <gridLJ>
-2.873    

> <gridEL>
0.000     

> <totalE>
0.598     

> <LGFE>
-2.873  

> <LE>
-0.575  

> <SMILES>
OCC1CC1

> <atom.dprop.GFE>
-1.7 0.037 -0.27 -0.41 -0.55 0 0 0 0 0 0 0 0

> <atom.prop.CLASS>
MEOO PRPC PRPC PRPC PRPC NCLA NCLA NCLA NCLA NCLA NCLA NCLA NCLA

$$$$
4
     RDKit          3D

 13 13  0  0  0  0  0  0  0  0999 V2000
   -1.8953    1.6413    8.3944 O   0  0  0  0  0  0  0  0  0  0  0  0
   -1.7893    3.0638    8.1991 C   0  0  0  0  0  0  0  0  0  0  0  0
   -3.0684    3.6282    8.8369 C   0  0  0  0  0  0  0  0  0  0  0  0
   -2.9845    5.0326    9.3586 C   0  0  0  0  0  0  0  0  0  0  0  0
   -3.0149    3.8645   10.3175 C   0  0  0  0  0  0  0  0  0  0  0  0
   -1.1373    1.1831    7.9969 H   0  0  0  0  0  0  0  0  0  0  0  0
   -1.7669    3.2899    7.1414 H   0  0  0  0  0  0  0  0  0  0  0  0
   -0.9311    3.4445    8.7385 H   0  0  0  0  0  0  0  0  0  0  0  0
   -3.9978    3.2968    8.3918 H   0  0  0  0  0  0  0  0  0  0  0  0
   -3.8872    5.6247    9.2815 H   0  0  0  0  0  0  0  0  0  0  0  0
   -2.0397    5.5468    9.2373 H   0  0  0  0  0  0  0  0  0  0  0  0
   -2.0894    3.6342   10.8282 H   0  0  0  0  0  0  0  0  0  0  0  0
   -3.9380    3.7136   10.8629 H   0  0  0  0  0  0  0  0  0  0  0  0
  1  2  1  0
  1  6  1  0
  2  3  1  0
  2  7  1  0
  2  8  1  0
  3  4  1  0
  3  5  1  0
  3  9  1  0
  4  5  1  0
  4 10  1  0
  4 11  1  0
  5 12  1  0
  5 13  1  0
M  END
> <intraLJ>
-0.228    

> <intraEL>
1.554     

> <intraDihe>
2.184     

> <interLJ>
0.000     

> <interEJ>
0.000     

> <gridLJ>
-2.880    

> <gridEL>
0.000     

> <totalE>
0.630     

> <LGFE>
-2.880  

> <LE>
-0.576  

> <SMILES>
OCC1CC1

> <atom.dprop.GFE>
-0.95 -0.56 -0.51 -0.4 -0.46 0 0 0 0 0 0 0 0

> <atom.prop.CLASS>
MEOO PRPC PRPC PRPC PRPC NCLA NCLA NCLA NCLA NCLA NCLA NCLA NCLA

$$$$
4
     RDKit          3D

 13 13  0  0  0  0  0  0  0  0999 V2000
  -25.1212   -3.8695    4.0553 O   0  0  0  0  0  0  0  0  0  0  0  0
  -25.3903   -5.1293    3.4124 C   0  0  0  0  0  0  0  0  0  0  0  0
  -26.5146   -5.7505    4.2561 C   0  0  0  0  0  0  0  0  0  0  0  0
  -27.4390   -6.6902    3.5392 C   0  0  0  0  0  0  0  0  0  0  0  0
  -27.9081   -5.3055    3.9231 C   0  0  0  0  0  0  0  0  0  0  0  0
  -24.3962   -3.4042    3.6079 H   0  0  0  0  0  0  0  0  0  0  0  0
  -24.5086   -5.7552    3.4445 H   0  0  0  0  0  0  0  0  0  0  0  0
  -25.7592   -4.9570    2.4092 H   0  0  0  0  0  0  0  0  0  0  0  0
  -26.2632   -5.9596    5.2881 H   0  0  0  0  0  0  0  0  0  0  0  0
  -27.8258   -7.5159    4.1222 H   0  0  0  0  0  0  0  0  0  0  0  0
  -27.2405   -6.8708    2.4905 H   0  0  0  0  0  0  0  0  0  0  0  0
  -28.0273   -4.5946    3.1162 H   0  0  0  0  0  0  0  0  0  0  0  0
  -28.6049   -5.2454    4.7495 H   0  0  0  0  0  0  0  0  0  0  0  0
  1  2  1  0
  1  6  1  0
  2  3  1  0
  2  7  1  0
  2  8  1  0
  3  4  1  0
  3  5  1  0
  3  9  1  0
  4  5  1  0
  4 10  1  0
  4 11  1  0
  5 12  1  0
  5 13  1  0
M  END
> <intraLJ>
-0.232    

> <intraEL>
1.557     

> <intraDihe>
2.185     

> <interLJ>
0.000     

> <interEJ>
0.000     

> <gridLJ>
-2.811    

> <gridEL>
0.000     

> <totalE>
0.698     

> <LGFE>
-2.811  

> <LE>
-0.562  

> <SMILES>
OCC1CC1

> <atom.dprop.GFE>
-1.3 -0.37 -0.43 -0.35 -0.37 0 0 0 0 0 0 0 0

> <atom.prop.CLASS>
MEOO PRPC PRPC PRPC PRPC NCLA NCLA NCLA NCLA NCLA NCLA NCLA NCLA

$$$$
4
     RDKit          3D

 13 13  0  0  0  0  0  0  0  0999 V2000
  -15.5324    6.9453  -16.8455 O   0  0  0  0  0  0  0  0  0  0  0  0
  -14.8089    8.1435  -16.5083 C   0  0  0  0  0  0  0  0  0  0  0  0
  -15.7257    8.8697  -15.5116 C   0  0  0  0  0  0  0  0  0  0  0  0
  -15.0469    9.7705  -14.5219 C   0  0  0  0  0  0  0  0  0  0  0  0
  -15.6099    8.4394  -14.0790 C   0  0  0  0  0  0  0  0  0  0  0  0
  -15.0429    6.4219  -17.5003 H   0  0  0  0  0  0  0  0  0  0  0  0
  -14.6646    8.7484  -17.3936 H   0  0  0  0  0  0  0  0  0  0  0  0
  -13.8837    7.8844  -16.0091 H   0  0  0  0  0  0  0  0  0  0  0  0
  -16.6953    9.1607  -15.8951 H   0  0  0  0  0  0  0  0  0  0  0  0
  -15.5961   10.6553  -14.2274 H   0  0  0  0  0  0  0  0  0  0  0  0
  -13.9696    9.8524  -14.5897 H   0  0  0  0  0  0  0  0  0  0  0  0
  -14.8919    7.6645  -13.8455 H   0  0  0  0  0  0  0  0  0  0  0  0
  -16.5184    8.4729  -13.4911 H   0  0  0  0  0  0  0  0  0  0  0  0
  1  2  1  0
  1  6  1  0
  2  3  1  0
  2  7  1  0
  2  8  1  0
  3  4  1  0
  3  5  1  0
  3  9  1  0
  4  5  1  0
  4 10  1  0
  4 11  1  0
  5 12  1  0
  5 13  1  0
M  END
> <intraLJ>
-0.228    

> <intraEL>
1.554     

> <intraDihe>
2.184     

> <interLJ>
0.000     

> <interEJ>
0.000     

> <gridLJ>
-2.815    

> <gridEL>
0.000     

> <totalE>
0.695     

> <LGFE>
-2.815  

> <LE>
-0.563  

> <SMILES>
OCC1CC1

> <atom.dprop.GFE>
-0.84 -0.42 -0.54 -0.48 -0.54 0 0 0 0 0 0 0 0

> <atom.prop.CLASS>
MEOO PRPC PRPC PRPC PRPC NCLA NCLA NCLA NCLA NCLA NCLA NCLA NCLA

$$$$
4
     RDKit          3D

 13 13  0  0  0  0  0  0  0  0999 V2000
   22.8104    3.6435  -31.6347 O   0  0  0  0  0  0  0  0  0  0  0  0
   22.1509    2.4219  -31.2530 C   0  0  0  0  0  0  0  0  0  0  0  0
   22.1110    2.4788  -29.7179 C   0  0  0  0  0  0  0  0  0  0  0  0
   23.3463    2.0122  -29.0052 C   0  0  0  0  0  0  0  0  0  0  0  0
   22.1012    1.1552  -29.0116 C   0  0  0  0  0  0  0  0  0  0  0  0
   22.9110    3.6920  -32.5990 H   0  0  0  0  0  0  0  0  0  0  0  0
   22.7326    1.5709  -31.5812 H   0  0  0  0  0  0  0  0  0  0  0  0
   21.1360    2.4204  -31.6303 H   0  0  0  0  0  0  0  0  0  0  0  0
   21.5506    3.3030  -29.2953 H   0  0  0  0  0  0  0  0  0  0  0  0
   23.5841    2.5211  -28.0801 H   0  0  0  0  0  0  0  0  0  0  0  0
   24.1744    1.6838  -29.6201 H   0  0  0  0  0  0  0  0  0  0  0  0
   22.1323    0.2621  -29.6214 H   0  0  0  0  0  0  0  0  0  0  0  0
   21.5446    1.1083  -28.0841 H   0  0  0  0  0  0  0  0  0  0  0  0
  1  2  1  0
  1  6  1  0
  2  3  1  0
  2  7  1  0
  2  8  1  0
  3  4  1  0
  3  5  1  0
  3  9  1  0
  4  5  1  0
  4 10  1  0
  4 11  1  0
  5 12  1  0
  5 13  1  0
M  END
> <intraLJ>
-0.265    

> <intraEL>
1.552     

> <intraDihe>
2.184     

> <interLJ>
0.000     

> <interEJ>
0.000     

> <gridLJ>
-2.732    

> <gridEL>
0.000     

> <totalE>
0.739     

> <LGFE>
-2.732  

> <LE>
-0.546  

> <SMILES>
OCC1CC1

> <atom.dprop.GFE>
-1.5 -0.37 -0.36 -0.3 -0.25 0 0 0 0 0 0 0 0

> <atom.prop.CLASS>
MEOO PRPC PRPC PRPC PRPC NCLA NCLA NCLA NCLA NCLA NCLA NCLA NCLA

$$$$
4
     RDKit          3D

 13 13  0  0  0  0  0  0  0  0999 V2000
   17.6872    7.1411   -3.6443 O   0  0  0  0  0  0  0  0  0  0  0  0
   17.4358    6.1483   -4.6563 C   0  0  0  0  0  0  0  0  0  0  0  0
   17.5144    6.9288   -5.9777 C   0  0  0  0  0  0  0  0  0  0  0  0
   17.9277    6.1433   -7.1876 C   0  0  0  0  0  0  0  0  0  0  0  0
   18.8893    7.1184   -6.5477 C   0  0  0  0  0  0  0  0  0  0  0  0
   17.6319    6.7489   -2.7580 H   0  0  0  0  0  0  0  0  0  0  0  0
   16.4461    5.7315   -4.5259 H   0  0  0  0  0  0  0  0  0  0  0  0
   18.2215    5.4035   -4.6417 H   0  0  0  0  0  0  0  0  0  0  0  0
   16.7831    7.7176   -6.0986 H   0  0  0  0  0  0  0  0  0  0  0  0
   17.4807    6.4432   -8.1265 H   0  0  0  0  0  0  0  0  0  0  0  0
   18.1267    5.0888   -7.0450 H   0  0  0  0  0  0  0  0  0  0  0  0
   19.7204    6.6906   -6.0030 H   0  0  0  0  0  0  0  0  0  0  0  0
   19.0651    8.0425   -7.0837 H   0  0  0  0  0  0  0  0  0  0  0  0
  1  2  1  0
  1  6  1  0
  2  3  1  0
  2  7  1  0
  2  8  1  0
  3  4  1  0
  3  5  1  0
  3  9  1  0
  4  5  1  0
  4 10  1  0
  4 11  1  0
  5 12  1  0
  5 13  1  0
M  END
> <intraLJ>
-0.230    

> <intraEL>
1.555     

> <intraDihe>
2.184     

> <interLJ>
0.000     

> <interEJ>
0.000     

> <gridLJ>
-2.754    

> <gridEL>
0.000     

> <totalE>
0.756     

> <LGFE>
-2.754  

> <LE>
-0.551  

> <SMILES>
OCC1CC1

> <atom.dprop.GFE>
-0.65 -0.55 -0.56 -0.47 -0.52 0 0 0 0 0 0 0 0

> <atom.prop.CLASS>
MEOO PRPC PRPC PRPC PRPC NCLA NCLA NCLA NCLA NCLA NCLA NCLA NCLA

$$$$
4
     RDKit          3D

 13 13  0  0  0  0  0  0  0  0999 V2000
   -5.9513   -7.8664    2.3720 O   0  0  0  0  0  0  0  0  0  0  0  0
   -7.2715   -8.4387    2.4207 C   0  0  0  0  0  0  0  0  0  0  0  0
   -7.0432   -9.8705    2.9297 C   0  0  0  0  0  0  0  0  0  0  0  0
   -6.6603  -10.8882    1.8956 C   0  0  0  0  0  0  0  0  0  0  0  0
   -8.0501  -10.8922    2.4901 C   0  0  0  0  0  0  0  0  0  0  0  0
   -5.9838   -6.9577    2.0319 H   0  0  0  0  0  0  0  0  0  0  0  0
   -7.7017   -8.4581    1.4282 H   0  0  0  0  0  0  0  0  0  0  0  0
   -7.8766   -7.9028    3.1411 H   0  0  0  0  0  0  0  0  0  0  0  0
   -6.6115   -9.9514    3.9191 H   0  0  0  0  0  0  0  0  0  0  0  0
   -5.9872  -11.6701    2.2222 H   0  0  0  0  0  0  0  0  0  0  0  0
   -6.5612  -10.5396    0.8755 H   0  0  0  0  0  0  0  0  0  0  0  0
   -8.8526  -10.5592    1.8454 H   0  0  0  0  0  0  0  0  0  0  0  0
   -8.2701  -11.6852    3.1937 H   0  0  0  0  0  0  0  0  0  0  0  0
  1  2  1  0
  1  6  1  0
  2  3  1  0
  2  7  1  0
  2  8  1  0
  3  4  1  0
  3  5  1  0
  3  9  1  0
  4  5  1  0
  4 10  1  0
  4 11  1  0
  5 12  1  0
  5 13  1  0
M  END
> <intraLJ>
-0.265    

> <intraEL>
1.552     

> <intraDihe>
2.184     

> <interLJ>
0.000     

> <interEJ>
0.000     

> <gridLJ>
-2.733    

> <gridEL>
0.000     

> <totalE>
0.738     

> <LGFE>
-2.733  

> <LE>
-0.547  

> <SMILES>
OCC1CC1

> <atom.dprop.GFE>
-1.2 -0.34 -0.34 -0.41 -0.43 0 0 0 0 0 0 0 0

> <atom.prop.CLASS>
MEOO PRPC PRPC PRPC PRPC NCLA NCLA NCLA NCLA NCLA NCLA NCLA NCLA

$$$$
4
     RDKit          3D

 13 13  0  0  0  0  0  0  0  0999 V2000
   17.9055   13.3564  -33.9349 O   0  0  0  0  0  0  0  0  0  0  0  0
   16.4817   13.5606  -33.9988 C   0  0  0  0  0  0  0  0  0  0  0  0
   16.3291   14.9643  -34.6053 C   0  0  0  0  0  0  0  0  0  0  0  0
   16.4308   16.1147  -33.6472 C   0  0  0  0  0  0  0  0  0  0  0  0
   15.0894   15.7157  -34.2185 C   0  0  0  0  0  0  0  0  0  0  0  0
   18.1108   12.4960  -33.5350 H   0  0  0  0  0  0  0  0  0  0  0  0
   16.0606   13.5353  -33.0026 H   0  0  0  0  0  0  0  0  0  0  0  0
   16.0380   12.8378  -34.6718 H   0  0  0  0  0  0  0  0  0  0  0  0
   16.7266   15.0872  -35.6046 H   0  0  0  0  0  0  0  0  0  0  0  0
   16.8770   17.0209  -34.0358 H   0  0  0  0  0  0  0  0  0  0  0  0
   16.6156   15.8745  -32.6081 H   0  0  0  0  0  0  0  0  0  0  0  0
   14.4005   15.2298  -33.5405 H   0  0  0  0  0  0  0  0  0  0  0  0
   14.6713   16.3740  -34.9696 H   0  0  0  0  0  0  0  0  0  0  0  0
  1  2  1  0
  1  6  1  0
  2  3  1  0
  2  7  1  0
  2  8  1  0
  3  4  1  0
  3  5  1  0
  3  9  1  0
  4  5  1  0
  4 10  1  0
  4 11  1  0
  5 12  1  0
  5 13  1  0
M  END
> <intraLJ>
-0.265    

> <intraEL>
1.552     

> <intraDihe>
2.184     

> <interLJ>
0.000     

> <interEJ>
0.000     

> <gridLJ>
-2.688    

> <gridEL>
0.000     

> <totalE>
0.783     

> <LGFE>
-2.688  

> <LE>
-0.538  

> <SMILES>
OCC1CC1

> <atom.dprop.GFE>
-0.86 -0.53 -0.45 -0.43 -0.42 0 0 0 0 0 0 0 0

> <atom.prop.CLASS>
MEOO PRPC PRPC PRPC PRPC NCLA NCLA NCLA NCLA NCLA NCLA NCLA NCLA

$$$$
4
     RDKit          3D

 13 13  0  0  0  0  0  0  0  0999 V2000
    9.8598   13.0899  -36.5015 O   0  0  0  0  0  0  0  0  0  0  0  0
    8.8054   12.1491  -36.2255 C   0  0  0  0  0  0  0  0  0  0  0  0
    7.5149   12.9496  -36.4609 C   0  0  0  0  0  0  0  0  0  0  0  0
    7.0352   13.7864  -35.3115 C   0  0  0  0  0  0  0  0  0  0  0  0
    6.3155   12.5079  -35.6752 C   0  0  0  0  0  0  0  0  0  0  0  0
   10.7290   12.6839  -36.3532 H   0  0  0  0  0  0  0  0  0  0  0  0
    8.8618   11.8240  -35.1953 H   0  0  0  0  0  0  0  0  0  0  0  0
    8.8468   11.3337  -36.9367 H   0  0  0  0  0  0  0  0  0  0  0  0
    7.3742   13.3239  -37.4669 H   0  0  0  0  0  0  0  0  0  0  0  0
    6.5427   14.7147  -35.5702 H   0  0  0  0  0  0  0  0  0  0  0  0
    7.6357   13.7753  -34.4108 H   0  0  0  0  0  0  0  0  0  0  0  0
    6.4402   11.6735  -34.9979 H   0  0  0  0  0  0  0  0  0  0  0  0
    5.3542   12.6184  -36.1610 H   0  0  0  0  0  0  0  0  0  0  0  0
  1  2  1  0
  1  6  1  0
  2  3  1  0
  2  7  1  0
  2  8  1  0
  3  4  1  0
  3  5  1  0
  3  9  1  0
  4  5  1  0
  4 10  1  0
  4 11  1  0
  5 12  1  0
  5 13  1  0
M  END
> <intraLJ>
-0.264    

> <intraEL>
1.551     

> <intraDihe>
2.184     

> <interLJ>
0.000     

> <interEJ>
0.000     

> <gridLJ>
-2.669    

> <gridEL>
0.000     

> <totalE>
0.801     

> <LGFE>
-2.669  

> <LE>
-0.534  

> <SMILES>
OCC1CC1

> <atom.dprop.GFE>
-1.5 -0.36 -0.29 -0.29 -0.24 0 0 0 0 0 0 0 0

> <atom.prop.CLASS>
MEOO PRPC PRPC PRPC PRPC NCLA NCLA NCLA NCLA NCLA NCLA NCLA NCLA

$$$$
4
     RDKit          3D

 13 13  0  0  0  0  0  0  0  0999 V2000
    2.9884    0.9399  -37.8728 O   0  0  0  0  0  0  0  0  0  0  0  0
    1.9670    1.6469  -38.6005 C   0  0  0  0  0  0  0  0  0  0  0  0
    2.5188    3.0750  -38.7333 C   0  0  0  0  0  0  0  0  0  0  0  0
    2.0480    3.8592  -39.9228 C   0  0  0  0  0  0  0  0  0  0  0  0
    3.4566    3.3126  -39.8800 C   0  0  0  0  0  0  0  0  0  0  0  0
    2.7203    0.0210  -37.7107 H   0  0  0  0  0  0  0  0  0  0  0  0
    1.0465    1.6525  -38.0322 H   0  0  0  0  0  0  0  0  0  0  0  0
    1.8593    1.2192  -39.5893 H   0  0  0  0  0  0  0  0  0  0  0  0
    2.6860    3.5998  -37.8015 H   0  0  0  0  0  0  0  0  0  0  0  0
    1.9331    4.9253  -39.7761 H   0  0  0  0  0  0  0  0  0  0  0  0
    1.3491    3.3700  -40.5892 H   0  0  0  0  0  0  0  0  0  0  0  0
    3.6709    2.4771  -40.5330 H   0  0  0  0  0  0  0  0  0  0  0  0
    4.2474    4.0332  -39.7139 H   0  0  0  0  0  0  0  0  0  0  0  0
  1  2  1  0
  1  6  1  0
  2  3  1  0
  2  7  1  0
  2  8  1  0
  3  4  1  0
  3  5  1  0
  3  9  1  0
  4  5  1  0
  4 10  1  0
  4 11  1  0
  5 12  1  0
  5 13  1  0
M  END
> <intraLJ>
-0.229    

> <intraEL>
1.555     

> <intraDihe>
2.184     

> <interLJ>
0.000     

> <interEJ>
0.000     

> <gridLJ>
-2.664    

> <gridEL>
0.000     

> <totalE>
0.845     

> <LGFE>
-2.664  

> <LE>
-0.533  

> <SMILES>
OCC1CC1

> <atom.dprop.GFE>
-0.96 -0.44 -0.46 -0.38 -0.43 0 0 0 0 0 0 0 0

> <atom.prop.CLASS>
MEOO PRPC PRPC PRPC PRPC NCLA NCLA NCLA NCLA NCLA NCLA NCLA NCLA

$$$$
4
     RDKit          3D

 13 13  0  0  0  0  0  0  0  0999 V2000
  -22.0083    5.2726  -11.5871 O   0  0  0  0  0  0  0  0  0  0  0  0
  -22.0175    6.0584  -10.3807 C   0  0  0  0  0  0  0  0  0  0  0  0
  -21.1937    5.2283   -9.3839 C   0  0  0  0  0  0  0  0  0  0  0  0
  -21.9327    4.1463   -8.6527 C   0  0  0  0  0  0  0  0  0  0  0  0
  -21.5339    5.4152   -7.9346 C   0  0  0  0  0  0  0  0  0  0  0  0
  -22.5325    5.7037  -12.2812 H   0  0  0  0  0  0  0  0  0  0  0  0
  -23.0321    6.1736  -10.0236 H   0  0  0  0  0  0  0  0  0  0  0  0
  -21.5128    7.0006  -10.5536 H   0  0  0  0  0  0  0  0  0  0  0  0
  -20.1624    5.0526   -9.6621 H   0  0  0  0  0  0  0  0  0  0  0  0
  -21.3653    3.2545   -8.4201 H   0  0  0  0  0  0  0  0  0  0  0  0
  -22.9819    4.0217   -8.8882 H   0  0  0  0  0  0  0  0  0  0  0  0
  -22.3316    6.1047   -7.6925 H   0  0  0  0  0  0  0  0  0  0  0  0
  -20.7134    5.3333   -7.2329 H   0  0  0  0  0  0  0  0  0  0  0  0
  1  2  1  0
  1  6  1  0
  2  3  1  0
  2  7  1  0
  2  8  1  0
  3  4  1  0
  3  5  1  0
  3  9  1  0
  4  5  1  0
  4 10  1  0
  4 11  1  0
  5 12  1  0
  5 13  1  0
M  END
> <intraLJ>
-0.263    

> <intraEL>
1.550     

> <intraDihe>
2.184     

> <interLJ>
0.000     

> <interEJ>
0.000     

> <gridLJ>
-2.663    

> <gridEL>
0.000     

> <totalE>
0.808     

> <LGFE>
-2.663  

> <LE>
-0.533  

> <SMILES>
OCC1CC1

> <atom.dprop.GFE>
-0.75 -0.51 -0.49 -0.49 -0.42 0 0 0 0 0 0 0 0

> <atom.prop.CLASS>
MEOO PRPC PRPC PRPC PRPC NCLA NCLA NCLA NCLA NCLA NCLA NCLA NCLA

$$$$
4
     RDKit          3D

 13 13  0  0  0  0  0  0  0  0999 V2000
  -30.4143   -9.2613   23.0063 O   0  0  0  0  0  0  0  0  0  0  0  0
  -30.0688   -9.0383   24.3861 C   0  0  0  0  0  0  0  0  0  0  0  0
  -29.5997  -10.4142   24.8844 C   0  0  0  0  0  0  0  0  0  0  0  0
  -28.6026  -10.4083   26.0057 C   0  0  0  0  0  0  0  0  0  0  0  0
  -28.1679  -10.7620   24.6019 C   0  0  0  0  0  0  0  0  0  0  0  0
  -30.7532   -8.4466   22.6017 H   0  0  0  0  0  0  0  0  0  0  0  0
  -30.9426   -8.7181   24.9377 H   0  0  0  0  0  0  0  0  0  0  0  0
  -29.2418   -8.3422   24.4486 H   0  0  0  0  0  0  0  0  0  0  0  0
  -30.3449  -11.1991   24.8595 H   0  0  0  0  0  0  0  0  0  0  0  0
  -28.6766  -11.2232   26.7140 H   0  0  0  0  0  0  0  0  0  0  0  0
  -28.2980   -9.4424   26.3878 H   0  0  0  0  0  0  0  0  0  0  0  0
  -27.5674  -10.0272   24.0823 H   0  0  0  0  0  0  0  0  0  0  0  0
  -27.9542  -11.8065   24.4132 H   0  0  0  0  0  0  0  0  0  0  0  0
  1  2  1  0
  1  6  1  0
  2  3  1  0
  2  7  1  0
  2  8  1  0
  3  4  1  0
  3  5  1  0
  3  9  1  0
  4  5  1  0
  4 10  1  0
  4 11  1  0
  5 12  1  0
  5 13  1  0
M  END
> <intraLJ>
-0.232    

> <intraEL>
1.557     

> <intraDihe>
2.185     

> <interLJ>
0.000     

> <interEJ>
0.000     

> <gridLJ>
-2.637    

> <gridEL>
0.000     

> <totalE>
0.873     

> <LGFE>
-2.637  

> <LE>
-0.527  

> <SMILES>
OCC1CC1

> <atom.dprop.GFE>
-0.72 -0.44 -0.52 -0.47 -0.48 0 0 0 0 0 0 0 0

> <atom.prop.CLASS>
MEOO PRPC PRPC PRPC PRPC NCLA NCLA NCLA NCLA NCLA NCLA NCLA NCLA

$$$$
4
     RDKit          3D

 13 13  0  0  0  0  0  0  0  0999 V2000
  -19.5625   -5.5660   25.2983 O   0  0  0  0  0  0  0  0  0  0  0  0
  -19.7627   -6.9818   25.4659 C   0  0  0  0  0  0  0  0  0  0  0  0
  -20.2673   -7.1228   26.9106 C   0  0  0  0  0  0  0  0  0  0  0  0
  -21.1478   -8.3047   27.1925 C   0  0  0  0  0  0  0  0  0  0  0  0
  -21.7391   -6.9156   27.1153 C   0  0  0  0  0  0  0  0  0  0  0  0
  -19.2132   -5.3714   24.4137 H   0  0  0  0  0  0  0  0  0  0  0  0
  -18.8229   -7.5038   25.3449 H   0  0  0  0  0  0  0  0  0  0  0  0
  -20.5354   -7.3250   24.7896 H   0  0  0  0  0  0  0  0  0  0  0  0
  -19.5795   -6.7954   27.6797 H   0  0  0  0  0  0  0  0  0  0  0  0
  -21.0570   -8.7427   28.1780 H   0  0  0  0  0  0  0  0  0  0  0  0
  -21.3517   -8.9742   26.3667 H   0  0  0  0  0  0  0  0  0  0  0  0
  -22.3396   -6.6938   26.2431 H   0  0  0  0  0  0  0  0  0  0  0  0
  -22.0361   -6.4663   28.0545 H   0  0  0  0  0  0  0  0  0  0  0  0
  1  2  1  0
  1  6  1  0
  2  3  1  0
  2  7  1  0
  2  8  1  0
  3  4  1  0
  3  5  1  0
  3  9  1  0
  4  5  1  0
  4 10  1  0
  4 11  1  0
  5 12  1  0
  5 13  1  0
M  END
> <intraLJ>
-0.231    

> <intraEL>
1.556     

> <intraDihe>
2.184     

> <interLJ>
0.000     

> <interEJ>
0.000     

> <gridLJ>
-2.658    

> <gridEL>
0.000     

> <totalE>
0.852     

> <LGFE>
-2.658  

> <LE>
-0.532  

> <SMILES>
OCC1CC1

> <atom.dprop.GFE>
-1.1 -0.33 -0.4 -0.42 -0.37 0 0 0 0 0 0 0 0

> <atom.prop.CLASS>
MEOO PRPC PRPC PRPC PRPC NCLA NCLA NCLA NCLA NCLA NCLA NCLA NCLA

$$$$
4
     RDKit          3D

 13 13  0  0  0  0  0  0  0  0999 V2000
  -24.0537    9.9791   13.3473 O   0  0  0  0  0  0  0  0  0  0  0  0
  -23.6599    8.9772   12.3913 C   0  0  0  0  0  0  0  0  0  0  0  0
  -24.9566    8.6465   11.6359 C   0  0  0  0  0  0  0  0  0  0  0  0
  -25.8585    7.6344   12.2792 C   0  0  0  0  0  0  0  0  0  0  0  0
  -25.0465    7.2644   11.0590 C   0  0  0  0  0  0  0  0  0  0  0  0
  -23.3003   10.2396   13.9011 H   0  0  0  0  0  0  0  0  0  0  0  0
  -23.2927    8.0999   12.9069 H   0  0  0  0  0  0  0  0  0  0  0  0
  -22.9454    9.3969   11.6943 H   0  0  0  0  0  0  0  0  0  0  0  0
  -25.4060    9.4704   11.0963 H   0  0  0  0  0  0  0  0  0  0  0  0
  -26.9208    7.7809   12.1328 H   0  0  0  0  0  0  0  0  0  0  0  0
  -25.5385    7.2231   13.2280 H   0  0  0  0  0  0  0  0  0  0  0  0
  -24.2084    6.5994   11.2197 H   0  0  0  0  0  0  0  0  0  0  0  0
  -25.5928    7.1652   10.1296 H   0  0  0  0  0  0  0  0  0  0  0  0
  1  2  1  0
  1  6  1  0
  2  3  1  0
  2  7  1  0
  2  8  1  0
  3  4  1  0
  3  5  1  0
  3  9  1  0
  4  5  1  0
  4 10  1  0
  4 11  1  0
  5 12  1  0
  5 13  1  0
M  END
> <intraLJ>
-0.263    

> <intraEL>
1.550     

> <intraDihe>
2.184     

> <interLJ>
0.000     

> <interEJ>
0.000     

> <gridLJ>
-2.600    

> <gridEL>
0.000     

> <totalE>
0.871     

> <LGFE>
-2.600  

> <LE>
-0.520  

> <SMILES>
OCC1CC1

> <atom.dprop.GFE>
-0.59 -0.58 -0.48 -0.47 -0.48 0 0 0 0 0 0 0 0

> <atom.prop.CLASS>
MEOO PRPC PRPC PRPC PRPC NCLA NCLA NCLA NCLA NCLA NCLA NCLA NCLA

$$$$
4
     RDKit          3D

 13 13  0  0  0  0  0  0  0  0999 V2000
    9.7924   12.1450  -36.6121 O   0  0  0  0  0  0  0  0  0  0  0  0
    9.2469   13.4660  -36.7867 C   0  0  0  0  0  0  0  0  0  0  0  0
    8.6664   13.8193  -35.4085 C   0  0  0  0  0  0  0  0  0  0  0  0
    7.2782   13.3237  -35.1273 C   0  0  0  0  0  0  0  0  0  0  0  0
    7.5217   14.7892  -35.4070 C   0  0  0  0  0  0  0  0  0  0  0  0
   10.1648   11.8149  -37.4456 H   0  0  0  0  0  0  0  0  0  0  0  0
    8.4611   13.4450  -37.5299 H   0  0  0  0  0  0  0  0  0  0  0  0
   10.0421   14.1624  -37.0212 H   0  0  0  0  0  0  0  0  0  0  0  0
    9.3795   13.8484  -34.5946 H   0  0  0  0  0  0  0  0  0  0  0  0
    7.0679   13.0507  -34.1014 H   0  0  0  0  0  0  0  0  0  0  0  0
    6.7950   12.7467  -35.9054 H   0  0  0  0  0  0  0  0  0  0  0  0
    7.1801   15.1619  -36.3634 H   0  0  0  0  0  0  0  0  0  0  0  0
    7.4582   15.4580  -34.5579 H   0  0  0  0  0  0  0  0  0  0  0  0
  1  2  1  0
  1  6  1  0
  2  3  1  0
  2  7  1  0
  2  8  1  0
  3  4  1  0
  3  5  1  0
  3  9  1  0
  4  5  1  0
  4 10  1  0
  4 11  1  0
  5 12  1  0
  5 13  1  0
M  END
> <intraLJ>
-0.261    

> <intraEL>
1.549     

> <intraDihe>
2.183     

> <interLJ>
0.000     

> <interEJ>
0.000     

> <gridLJ>
-2.569    

> <gridEL>
0.000     

> <totalE>
0.902     

> <LGFE>
-2.569  

> <LE>
-0.514  

> <SMILES>
OCC1CC1

> <atom.dprop.GFE>
-1.5 -0.31 -0.32 -0.29 -0.16 0 0 0 0 0 0 0 0

> <atom.prop.CLASS>
MEOO PRPC PRPC PRPC PRPC NCLA NCLA NCLA NCLA NCLA NCLA NCLA NCLA

$$$$
4
     RDKit          3D

 13 13  0  0  0  0  0  0  0  0999 V2000
   23.5460    1.0159  -22.4176 O   0  0  0  0  0  0  0  0  0  0  0  0
   23.2865    0.1609  -21.2886 C   0  0  0  0  0  0  0  0  0  0  0  0
   23.4541    1.0833  -20.0710 C   0  0  0  0  0  0  0  0  0  0  0  0
   24.8576    1.2832  -19.5793 C   0  0  0  0  0  0  0  0  0  0  0  0
   23.8932    0.4190  -18.7994 C   0  0  0  0  0  0  0  0  0  0  0  0
   23.4911    0.5146  -23.2471 H   0  0  0  0  0  0  0  0  0  0  0  0
   24.0151   -0.6381  -21.2563 H   0  0  0  0  0  0  0  0  0  0  0  0
   22.2633   -0.1913  -21.3235 H   0  0  0  0  0  0  0  0  0  0  0  0
   22.7639    1.9155  -20.0168 H   0  0  0  0  0  0  0  0  0  0  0  0
   25.0840    2.2576  -19.1662 H   0  0  0  0  0  0  0  0  0  0  0  0
   25.6456    0.7769  -20.1219 H   0  0  0  0  0  0  0  0  0  0  0  0
   24.0695   -0.6480  -18.8270 H   0  0  0  0  0  0  0  0  0  0  0  0
   23.5076    0.8386  -17.8788 H   0  0  0  0  0  0  0  0  0  0  0  0
  1  2  1  0
  1  6  1  0
  2  3  1  0
  2  7  1  0
  2  8  1  0
  3  4  1  0
  3  5  1  0
  3  9  1  0
  4  5  1  0
  4 10  1  0
  4 11  1  0
  5 12  1  0
  5 13  1  0
M  END
> <intraLJ>
-0.266    

> <intraEL>
1.553     

> <intraDihe>
2.184     

> <interLJ>
0.000     

> <interEJ>
0.000     

> <gridLJ>
-2.502    

> <gridEL>
0.000     

> <totalE>
0.969     

> <LGFE>
-2.502  

> <LE>
-0.500  

> <SMILES>
OCC1CC1

> <atom.dprop.GFE>
-0.84 -0.46 -0.44 -0.35 -0.42 0 0 0 0 0 0 0 0

> <atom.prop.CLASS>
MEOO PRPC PRPC PRPC PRPC NCLA NCLA NCLA NCLA NCLA NCLA NCLA NCLA

$$$$
4
     RDKit          3D

 13 13  0  0  0  0  0  0  0  0999 V2000
   18.8656   -3.8585  -34.4331 O   0  0  0  0  0  0  0  0  0  0  0  0
   18.8330   -2.5373  -33.8618 C   0  0  0  0  0  0  0  0  0  0  0  0
   17.3429   -2.1616  -33.8660 C   0  0  0  0  0  0  0  0  0  0  0  0
   16.9012   -1.1919  -32.8094 C   0  0  0  0  0  0  0  0  0  0  0  0
   16.5379   -2.6551  -32.7001 C   0  0  0  0  0  0  0  0  0  0  0  0
   19.7790   -4.1803  -34.5007 H   0  0  0  0  0  0  0  0  0  0  0  0
   19.3936   -1.8527  -34.4842 H   0  0  0  0  0  0  0  0  0  0  0  0
   19.1829   -2.5725  -32.8378 H   0  0  0  0  0  0  0  0  0  0  0  0
   16.8766   -2.1108  -34.8416 H   0  0  0  0  0  0  0  0  0  0  0  0
   16.1075   -0.5112  -33.0887 H   0  0  0  0  0  0  0  0  0  0  0  0
   17.6612   -0.8206  -32.1339 H   0  0  0  0  0  0  0  0  0  0  0  0
   17.0550   -3.2261  -31.9405 H   0  0  0  0  0  0  0  0  0  0  0  0
   15.5053   -2.9108  -32.9017 H   0  0  0  0  0  0  0  0  0  0  0  0
  1  2  1  0
  1  6  1  0
  2  3  1  0
  2  7  1  0
  2  8  1  0
  3  4  1  0
  3  5  1  0
  3  9  1  0
  4  5  1  0
  4 10  1  0
  4 11  1  0
  5 12  1  0
  5 13  1  0
M  END
> <intraLJ>
-0.230    

> <intraEL>
1.556     

> <intraDihe>
2.184     

> <interLJ>
0.000     

> <interEJ>
0.000     

> <gridLJ>
-2.379    

> <gridEL>
0.000     

> <totalE>
1.131     

> <LGFE>
-2.379  

> <LE>
-0.476  

> <SMILES>
OCC1CC1

> <atom.dprop.GFE>
-0.6 -0.41 -0.49 -0.49 -0.4 0 0 0 0 0 0 0 0

> <atom.prop.CLASS>
MEOO PRPC PRPC PRPC PRPC NCLA NCLA NCLA NCLA NCLA NCLA NCLA NCLA

$$$$
4
     RDKit          3D

 13 13  0  0  0  0  0  0  0  0999 V2000
  -40.4633    0.3866   27.7657 O   0  0  0  0  0  0  0  0  0  0  0  0
  -39.9719   -0.9189   28.1222 C   0  0  0  0  0  0  0  0  0  0  0  0
  -39.1988   -1.3835   26.8781 C   0  0  0  0  0  0  0  0  0  0  0  0
  -40.0171   -1.9979   25.7806 C   0  0  0  0  0  0  0  0  0  0  0  0
  -39.1422   -2.8661   26.6556 C   0  0  0  0  0  0  0  0  0  0  0  0
  -40.9961    0.7608   28.4858 H   0  0  0  0  0  0  0  0  0  0  0  0
  -40.8021   -1.5846   28.3174 H   0  0  0  0  0  0  0  0  0  0  0  0
  -39.2824   -0.8364   28.9529 H   0  0  0  0  0  0  0  0  0  0  0  0
  -38.3421   -0.7794   26.6078 H   0  0  0  0  0  0  0  0  0  0  0  0
  -39.6723   -1.8179   24.7706 H   0  0  0  0  0  0  0  0  0  0  0  0
  -41.0864   -2.0573   25.9386 H   0  0  0  0  0  0  0  0  0  0  0  0
  -39.6505   -3.4994   27.3704 H   0  0  0  0  0  0  0  0  0  0  0  0
  -38.2379   -3.2506   26.2009 H   0  0  0  0  0  0  0  0  0  0  0  0
  1  2  1  0
  1  6  1  0
  2  3  1  0
  2  7  1  0
  2  8  1  0
  3  4  1  0
  3  5  1  0
  3  9  1  0
  4  5  1  0
  4 10  1  0
  4 11  1  0
  5 12  1  0
  5 13  1  0
M  END
> <intraLJ>
-0.267    

> <intraEL>
1.554     

> <intraDihe>
2.185     

> <interLJ>
0.000     

> <interEJ>
0.000     

> <gridLJ>
-2.295    

> <gridEL>
0.000     

> <totalE>
1.177     

> <LGFE>
-2.295  

> <LE>
-0.459  

> <SMILES>
OCC1CC1

> <atom.dprop.GFE>
-0.45 -0.43 -0.49 -0.47 -0.45 0 0 0 0 0 0 0 0

> <atom.prop.CLASS>
MEOO PRPC PRPC PRPC PRPC NCLA NCLA NCLA NCLA NCLA NCLA NCLA NCLA

$$$$
4
     RDKit          3D

 13 13  0  0  0  0  0  0  0  0999 V2000
  -20.7091   -9.8112    5.4528 O   0  0  0  0  0  0  0  0  0  0  0  0
  -21.0826   -8.9697    6.5598 C   0  0  0  0  0  0  0  0  0  0  0  0
  -22.5573   -9.3172    6.8165 C   0  0  0  0  0  0  0  0  0  0  0  0
  -23.0502   -9.1186    8.2198 C   0  0  0  0  0  0  0  0  0  0  0  0
  -22.8084  -10.5126    7.6877 C   0  0  0  0  0  0  0  0  0  0  0  0
  -19.7888   -9.6458    5.1916 H   0  0  0  0  0  0  0  0  0  0  0  0
  -20.9862   -7.9290    6.2806 H   0  0  0  0  0  0  0  0  0  0  0  0
  -20.5023   -9.2360    7.4342 H   0  0  0  0  0  0  0  0  0  0  0  0
  -23.2348   -9.1137    5.9971 H   0  0  0  0  0  0  0  0  0  0  0  0
  -24.0816   -8.8075    8.3235 H   0  0  0  0  0  0  0  0  0  0  0  0
  -22.3396   -8.7358    8.9412 H   0  0  0  0  0  0  0  0  0  0  0  0
  -21.9467  -11.0366    8.0792 H   0  0  0  0  0  0  0  0  0  0  0  0
  -23.6888  -11.0994    7.4581 H   0  0  0  0  0  0  0  0  0  0  0  0
  1  2  1  0
  1  6  1  0
  2  3  1  0
  2  7  1  0
  2  8  1  0
  3  4  1  0
  3  5  1  0
  3  9  1  0
  4  5  1  0
  4 10  1  0
  4 11  1  0
  5 12  1  0
  5 13  1  0
M  END
> <intraLJ>
-0.228    

> <intraEL>
1.554     

> <intraDihe>
2.184     

> <interLJ>
0.000     

> <interEJ>
0.000     

> <gridLJ>
-2.250    

> <gridEL>
0.000     

> <totalE>
1.259     

> <LGFE>
-2.250  

> <LE>
-0.450  

> <SMILES>
OCC1CC1

> <atom.dprop.GFE>
-0.36 -0.44 -0.53 -0.45 -0.47 0 0 0 0 0 0 0 0

> <atom.prop.CLASS>
MEOO PRPC PRPC PRPC PRPC NCLA NCLA NCLA NCLA NCLA NCLA NCLA NCLA

$$$$
4
     RDKit          3D

 13 13  0  0  0  0  0  0  0  0999 V2000
   23.3221    6.5231   -7.9499 O   0  0  0  0  0  0  0  0  0  0  0  0
   24.7047    6.9173   -8.0261 C   0  0  0  0  0  0  0  0  0  0  0  0
   24.8196    7.6287   -9.3834 C   0  0  0  0  0  0  0  0  0  0  0  0
   25.8782    8.6869   -9.4893 C   0  0  0  0  0  0  0  0  0  0  0  0
   24.4197    9.0746   -9.4031 C   0  0  0  0  0  0  0  0  0  0  0  0
   23.1496    6.0346   -7.1290 H   0  0  0  0  0  0  0  0  0  0  0  0
   25.3393    6.0414   -8.0075 H   0  0  0  0  0  0  0  0  0  0  0  0
   24.9272    7.6264   -7.2387 H   0  0  0  0  0  0  0  0  0  0  0  0
   24.6131    7.0155  -10.2513 H   0  0  0  0  0  0  0  0  0  0  0  0
   26.3546    8.7900  -10.4557 H   0  0  0  0  0  0  0  0  0  0  0  0
   26.4879    8.8622   -8.6122 H   0  0  0  0  0  0  0  0  0  0  0  0
   24.0912    9.5159   -8.4715 H   0  0  0  0  0  0  0  0  0  0  0  0
   23.9630    9.4356  -10.3160 H   0  0  0  0  0  0  0  0  0  0  0  0
  1  2  1  0
  1  6  1  0
  2  3  1  0
  2  7  1  0
  2  8  1  0
  3  4  1  0
  3  5  1  0
  3  9  1  0
  4  5  1  0
  4 10  1  0
  4 11  1  0
  5 12  1  0
  5 13  1  0
M  END
> <intraLJ>
-0.233    

> <intraEL>
1.558     

> <intraDihe>
2.185     

> <interLJ>
0.000     

> <interEJ>
0.000     

> <gridLJ>
-2.224    

> <gridEL>
0.000     

> <totalE>
1.286     

> <LGFE>
-2.224  

> <LE>
-0.445  

> <SMILES>
OCC1CC1

> <atom.dprop.GFE>
-0.73 -0.37 -0.41 -0.34 -0.37 0 0 0 0 0 0 0 0

> <atom.prop.CLASS>
MEOO PRPC PRPC PRPC PRPC NCLA NCLA NCLA NCLA NCLA NCLA NCLA NCLA

$$$$
4
     RDKit          3D

 13 13  0  0  0  0  0  0  0  0999 V2000
   24.1444   10.9943  -16.5838 O   0  0  0  0  0  0  0  0  0  0  0  0
   22.7208   11.1958  -16.6600 C   0  0  0  0  0  0  0  0  0  0  0  0
   22.4604   11.4872  -18.1462 C   0  0  0  0  0  0  0  0  0  0  0  0
   22.6592   12.9075  -18.5876 C   0  0  0  0  0  0  0  0  0  0  0  0
   21.2646   12.3415  -18.4483 C   0  0  0  0  0  0  0  0  0  0  0  0
   24.4185   10.8279  -15.6675 H   0  0  0  0  0  0  0  0  0  0  0  0
   22.4361   12.0469  -16.0560 H   0  0  0  0  0  0  0  0  0  0  0  0
   22.2067   10.2831  -16.3864 H   0  0  0  0  0  0  0  0  0  0  0  0
   22.7231   10.6914  -18.8314 H   0  0  0  0  0  0  0  0  0  0  0  0
   23.0316   13.0464  -19.5943 H   0  0  0  0  0  0  0  0  0  0  0  0
   22.9816   13.6159  -17.8352 H   0  0  0  0  0  0  0  0  0  0  0  0
   20.6797   12.6981  -17.6109 H   0  0  0  0  0  0  0  0  0  0  0  0
   20.7388   12.1253  -19.3697 H   0  0  0  0  0  0  0  0  0  0  0  0
  1  2  1  0
  1  6  1  0
  2  3  1  0
  2  7  1  0
  2  8  1  0
  3  4  1  0
  3  5  1  0
  3  9  1  0
  4  5  1  0
  4 10  1  0
  4 11  1  0
  5 12  1  0
  5 13  1  0
M  END
> <intraLJ>
-0.264    

> <intraEL>
1.551     

> <intraDihe>
2.184     

> <interLJ>
0.000     

> <interEJ>
0.000     

> <gridLJ>
-2.158    

> <gridEL>
0.000     

> <totalE>
1.313     

> <LGFE>
-2.158  

> <LE>
-0.432  

> <SMILES>
OCC1CC1

> <atom.dprop.GFE>
-0.5 -0.43 -0.37 -0.39 -0.48 0 0 0 0 0 0 0 0

> <atom.prop.CLASS>
MEOO PRPC PRPC PRPC PRPC NCLA NCLA NCLA NCLA NCLA NCLA NCLA NCLA

$$$$
4
     RDKit          3D

 13 13  0  0  0  0  0  0  0  0999 V2000
  -28.9593   14.9348   17.8472 O   0  0  0  0  0  0  0  0  0  0  0  0
  -28.7358   13.5223   18.0134 C   0  0  0  0  0  0  0  0  0  0  0  0
  -27.3155   13.2990   17.4709 C   0  0  0  0  0  0  0  0  0  0  0  0
  -26.5513   12.1530   18.0662 C   0  0  0  0  0  0  0  0  0  0  0  0
  -26.1951   13.5764   18.4293 C   0  0  0  0  0  0  0  0  0  0  0  0
  -29.8527   15.1773   18.1395 H   0  0  0  0  0  0  0  0  0  0  0  0
  -29.4529   12.9640   17.4266 H   0  0  0  0  0  0  0  0  0  0  0  0
  -28.7525   13.2703   19.0663 H   0  0  0  0  0  0  0  0  0  0  0  0
  -27.1756   13.5238   16.4212 H   0  0  0  0  0  0  0  0  0  0  0  0
  -25.8736   11.6346   17.4004 H   0  0  0  0  0  0  0  0  0  0  0  0
  -27.0571   11.5634   18.8200 H   0  0  0  0  0  0  0  0  0  0  0  0
  -26.4587   13.9010   19.4271 H   0  0  0  0  0  0  0  0  0  0  0  0
  -25.2809   13.9677   18.0012 H   0  0  0  0  0  0  0  0  0  0  0  0
  1  2  1  0
  1  6  1  0
  2  3  1  0
  2  7  1  0
  2  8  1  0
  3  4  1  0
  3  5  1  0
  3  9  1  0
  4  5  1  0
  4 10  1  0
  4 11  1  0
  5 12  1  0
  5 13  1  0
M  END
> <intraLJ>
-0.233    

> <intraEL>
1.558     

> <intraDihe>
2.185     

> <interLJ>
0.000     

> <interEJ>
0.000     

> <gridLJ>
-2.160    

> <gridEL>
0.000     

> <totalE>
1.350     

> <LGFE>
-2.160  

> <LE>
-0.432  

> <SMILES>
OCC1CC1

> <atom.dprop.GFE>
-0.58 -0.48 -0.46 -0.26 -0.38 0 0 0 0 0 0 0 0

> <atom.prop.CLASS>
MEOO PRPC PRPC PRPC PRPC NCLA NCLA NCLA NCLA NCLA NCLA NCLA NCLA

$$$$
4
     RDKit          3D

 13 13  0  0  0  0  0  0  0  0999 V2000
  -16.7912   -6.8400   -7.5761 O   0  0  0  0  0  0  0  0  0  0  0  0
  -16.9190   -8.2511   -7.3201 C   0  0  0  0  0  0  0  0  0  0  0  0
  -16.7848   -8.8995   -8.7069 C   0  0  0  0  0  0  0  0  0  0  0  0
  -18.0338   -8.9534   -9.5368 C   0  0  0  0  0  0  0  0  0  0  0  0
  -17.4936  -10.2089   -8.8911 C   0  0  0  0  0  0  0  0  0  0  0  0
  -16.8903   -6.3322   -6.7547 H   0  0  0  0  0  0  0  0  0  0  0  0
  -17.8934   -8.4628   -6.9004 H   0  0  0  0  0  0  0  0  0  0  0  0
  -16.1000   -8.5856   -6.6959 H   0  0  0  0  0  0  0  0  0  0  0  0
  -15.8382   -8.7404   -9.2073 H   0  0  0  0  0  0  0  0  0  0  0  0
  -17.9001   -8.8581  -10.6065 H   0  0  0  0  0  0  0  0  0  0  0  0
  -18.9292   -8.5235   -9.1064 H   0  0  0  0  0  0  0  0  0  0  0  0
  -18.0518  -10.5986   -8.0503 H   0  0  0  0  0  0  0  0  0  0  0  0
  -17.0199  -10.9241   -9.5516 H   0  0  0  0  0  0  0  0  0  0  0  0
  1  2  1  0
  1  6  1  0
  2  3  1  0
  2  7  1  0
  2  8  1  0
  3  4  1  0
  3  5  1  0
  3  9  1  0
  4  5  1  0
  4 10  1  0
  4 11  1  0
  5 12  1  0
  5 13  1  0
M  END
> <intraLJ>
-0.266    

> <intraEL>
1.552     

> <intraDihe>
2.184     

> <interLJ>
0.000     

> <interEJ>
0.000     

> <gridLJ>
-2.164    

> <gridEL>
0.000     

> <totalE>
1.308     

> <LGFE>
-2.164  

> <LE>
-0.433  

> <SMILES>
OCC1CC1

> <atom.dprop.GFE>
-1.4 -0.15 -0.22 -0.21 -0.18 0 0 0 0 0 0 0 0

> <atom.prop.CLASS>
MEOO PRPC PRPC PRPC PRPC NCLA NCLA NCLA NCLA NCLA NCLA NCLA NCLA

$$$$
4
     RDKit          3D

 13 13  0  0  0  0  0  0  0  0999 V2000
   14.8882    6.8224  -44.4986 O   0  0  0  0  0  0  0  0  0  0  0  0
   14.8349    5.4134  -44.2076 C   0  0  0  0  0  0  0  0  0  0  0  0
   13.4085    5.0005  -44.6030 C   0  0  0  0  0  0  0  0  0  0  0  0
   12.3419    5.2333  -43.5735 C   0  0  0  0  0  0  0  0  0  0  0  0
   12.8326    3.8322  -43.8584 C   0  0  0  0  0  0  0  0  0  0  0  0
   15.7529    7.1904  -44.2550 H   0  0  0  0  0  0  0  0  0  0  0  0
   14.9927    5.2492  -43.1500 H   0  0  0  0  0  0  0  0  0  0  0  0
   15.5401    4.8829  -44.8351 H   0  0  0  0  0  0  0  0  0  0  0  0
   13.1564    5.1327  -45.6474 H   0  0  0  0  0  0  0  0  0  0  0  0
   11.3622    5.4940  -43.9523 H   0  0  0  0  0  0  0  0  0  0  0  0
   12.6505    5.6835  -42.6387 H   0  0  0  0  0  0  0  0  0  0  0  0
   13.4477    3.3714  -43.0970 H   0  0  0  0  0  0  0  0  0  0  0  0
   12.1605    3.1908  -44.4143 H   0  0  0  0  0  0  0  0  0  0  0  0
  1  2  1  0
  1  6  1  0
  2  3  1  0
  2  7  1  0
  2  8  1  0
  3  4  1  0
  3  5  1  0
  3  9  1  0
  4  5  1  0
  4 10  1  0
  4 11  1  0
  5 12  1  0
  5 13  1  0
M  END
> <intraLJ>
-0.265    

> <intraEL>
1.552     

> <intraDihe>
2.184     

> <interLJ>
0.000     

> <interEJ>
0.000     

> <gridLJ>
-2.144    

> <gridEL>
0.000     

> <totalE>
1.327     

> <LGFE>
-2.144  

> <LE>
-0.429  

> <SMILES>
OCC1CC1

> <atom.dprop.GFE>
-0.76 -0.34 -0.35 -0.37 -0.33 0 0 0 0 0 0 0 0

> <atom.prop.CLASS>
MEOO PRPC PRPC PRPC PRPC NCLA NCLA NCLA NCLA NCLA NCLA NCLA NCLA

$$$$
4
     RDKit          3D

 13 13  0  0  0  0  0  0  0  0999 V2000
  -26.9392    4.1898    6.6180 O   0  0  0  0  0  0  0  0  0  0  0  0
  -27.8241    3.0624    6.4806 C   0  0  0  0  0  0  0  0  0  0  0  0
  -26.8835    1.8478    6.4388 C   0  0  0  0  0  0  0  0  0  0  0  0
  -27.4556    0.5496    6.9277 C   0  0  0  0  0  0  0  0  0  0  0  0
  -26.4524    1.3048    7.7693 C   0  0  0  0  0  0  0  0  0  0  0  0
  -27.4412    5.0206    6.6267 H   0  0  0  0  0  0  0  0  0  0  0  0
  -28.3779    3.1392    5.5545 H   0  0  0  0  0  0  0  0  0  0  0  0
  -28.4575    2.9854    7.3553 H   0  0  0  0  0  0  0  0  0  0  0  0
  -26.1850    1.8261    5.6121 H   0  0  0  0  0  0  0  0  0  0  0  0
  -27.1018   -0.3445    6.4311 H   0  0  0  0  0  0  0  0  0  0  0  0
  -28.4858    0.5603    7.2600 H   0  0  0  0  0  0  0  0  0  0  0  0
  -26.8350    1.7917    8.6564 H   0  0  0  0  0  0  0  0  0  0  0  0
  -25.4547    0.8874    7.8187 H   0  0  0  0  0  0  0  0  0  0  0  0
  1  2  1  0
  1  6  1  0
  2  3  1  0
  2  7  1  0
  2  8  1  0
  3  4  1  0
  3  5  1  0
  3  9  1  0
  4  5  1  0
  4 10  1  0
  4 11  1  0
  5 12  1  0
  5 13  1  0
M  END
> <intraLJ>
-0.229    

> <intraEL>
1.555     

> <intraDihe>
2.184     

> <interLJ>
0.000     

> <interEJ>
0.000     

> <gridLJ>
-2.113    

> <gridEL>
0.000     

> <totalE>
1.397     

> <LGFE>
-2.113  

> <LE>
-0.423  

> <SMILES>
OCC1CC1

> <atom.dprop.GFE>
-0.62 -0.37 -0.38 -0.38 -0.36 0 0 0 0 0 0 0 0

> <atom.prop.CLASS>
MEOO PRPC PRPC PRPC PRPC NCLA NCLA NCLA NCLA NCLA NCLA NCLA NCLA

$$$$
4
     RDKit          3D

 13 13  0  0  0  0  0  0  0  0999 V2000
  -26.6276    4.7652    7.2524 O   0  0  0  0  0  0  0  0  0  0  0  0
  -27.3757    3.6533    7.7787 C   0  0  0  0  0  0  0  0  0  0  0  0
  -27.3572    2.6160    6.6451 C   0  0  0  0  0  0  0  0  0  0  0  0
  -27.4617    1.1781    7.0609 C   0  0  0  0  0  0  0  0  0  0  0  0
  -26.1428    1.7375    6.5785 C   0  0  0  0  0  0  0  0  0  0  0  0
  -26.6034    5.4955    7.8916 H   0  0  0  0  0  0  0  0  0  0  0  0
  -28.3917    3.9594    7.9897 H   0  0  0  0  0  0  0  0  0  0  0  0
  -26.8632    3.2416    8.6391 H   0  0  0  0  0  0  0  0  0  0  0  0
  -27.8335    2.9233    5.7228 H   0  0  0  0  0  0  0  0  0  0  0  0
  -27.9917    0.5226    6.3821 H   0  0  0  0  0  0  0  0  0  0  0  0
  -27.5546    0.9781    8.1207 H   0  0  0  0  0  0  0  0  0  0  0  0
  -25.3769    1.8844    7.3283 H   0  0  0  0  0  0  0  0  0  0  0  0
  -25.8232    1.4318    5.5903 H   0  0  0  0  0  0  0  0  0  0  0  0
  1  2  1  0
  1  6  1  0
  2  3  1  0
  2  7  1  0
  2  8  1  0
  3  4  1  0
  3  5  1  0
  3  9  1  0
  4  5  1  0
  4 10  1  0
  4 11  1  0
  5 12  1  0
  5 13  1  0
M  END
> <intraLJ>
-0.231    

> <intraEL>
1.556     

> <intraDihe>
2.184     

> <interLJ>
0.000     

> <interEJ>
0.000     

> <gridLJ>
-2.095    

> <gridEL>
0.000     

> <totalE>
1.415     

> <LGFE>
-2.095  

> <LE>
-0.419  

> <SMILES>
OCC1CC1

> <atom.dprop.GFE>
-0.62 -0.34 -0.37 -0.39 -0.38 0 0 0 0 0 0 0 0

> <atom.prop.CLASS>
MEOO PRPC PRPC PRPC PRPC NCLA NCLA NCLA NCLA NCLA NCLA NCLA NCLA

$$$$
4
     RDKit          3D

 13 13  0  0  0  0  0  0  0  0999 V2000
  -28.3089   15.0723   25.9892 O   0  0  0  0  0  0  0  0  0  0  0  0
  -28.6930   16.1847   26.8186 C   0  0  0  0  0  0  0  0  0  0  0  0
  -30.2046   16.3273   26.5816 C   0  0  0  0  0  0  0  0  0  0  0  0
  -30.9989   16.9205   27.7081 C   0  0  0  0  0  0  0  0  0  0  0  0
  -31.0860   15.4409   27.4113 C   0  0  0  0  0  0  0  0  0  0  0  0
  -27.3526   14.9153   26.0474 H   0  0  0  0  0  0  0  0  0  0  0  0
  -28.1774   17.0797   26.4969 H   0  0  0  0  0  0  0  0  0  0  0  0
  -28.5228   15.9410   27.8598 H   0  0  0  0  0  0  0  0  0  0  0  0
  -30.4987   16.5561   25.5653 H   0  0  0  0  0  0  0  0  0  0  0  0
  -31.8496   17.5264   27.4245 H   0  0  0  0  0  0  0  0  0  0  0  0
  -30.4514   17.2144   28.5945 H   0  0  0  0  0  0  0  0  0  0  0  0
  -30.6056   14.7771   28.1178 H   0  0  0  0  0  0  0  0  0  0  0  0
  -32.0000   15.0970   26.9438 H   0  0  0  0  0  0  0  0  0  0  0  0
  1  2  1  0
  1  6  1  0
  2  3  1  0
  2  7  1  0
  2  8  1  0
  3  4  1  0
  3  5  1  0
  3  9  1  0
  4  5  1  0
  4 10  1  0
  4 11  1  0
  5 12  1  0
  5 13  1  0
M  END
> <intraLJ>
-0.230    

> <intraEL>
1.555     

> <intraDihe>
2.184     

> <interLJ>
0.000     

> <interEJ>
0.000     

> <gridLJ>
-2.092    

> <gridEL>
0.000     

> <totalE>
1.418     

> <LGFE>
-2.092  

> <LE>
-0.418  

> <SMILES>
OCC1CC1

> <atom.dprop.GFE>
-0.97 -0.25 -0.29 -0.31 -0.28 0 0 0 0 0 0 0 0

> <atom.prop.CLASS>
MEOO PRPC PRPC PRPC PRPC NCLA NCLA NCLA NCLA NCLA NCLA NCLA NCLA

$$$$
4
     RDKit          3D

 13 13  0  0  0  0  0  0  0  0999 V2000
  -24.2319   -1.6112  -21.7155 O   0  0  0  0  0  0  0  0  0  0  0  0
  -25.0766   -1.9649  -20.6045 C   0  0  0  0  0  0  0  0  0  0  0  0
  -24.1483   -1.8793  -19.3829 C   0  0  0  0  0  0  0  0  0  0  0  0
  -23.3150   -3.0941  -19.0975 C   0  0  0  0  0  0  0  0  0  0  0  0
  -24.5040   -2.7638  -18.2244 C   0  0  0  0  0  0  0  0  0  0  0  0
  -24.7244   -1.6621  -22.5505 H   0  0  0  0  0  0  0  0  0  0  0  0
  -25.4424   -2.9756  -20.7268 H   0  0  0  0  0  0  0  0  0  0  0  0
  -25.8661   -1.2318  -20.4969 H   0  0  0  0  0  0  0  0  0  0  0  0
  -23.7233   -0.9032  -19.1866 H   0  0  0  0  0  0  0  0  0  0  0  0
  -22.3346   -2.9119  -18.6769 H   0  0  0  0  0  0  0  0  0  0  0  0
  -23.4183   -3.9317  -19.7754 H   0  0  0  0  0  0  0  0  0  0  0  0
  -25.3722   -3.4007  -18.3290 H   0  0  0  0  0  0  0  0  0  0  0  0
  -24.2835   -2.3768  -17.2376 H   0  0  0  0  0  0  0  0  0  0  0  0
  1  2  1  0
  1  6  1  0
  2  3  1  0
  2  7  1  0
  2  8  1  0
  3  4  1  0
  3  5  1  0
  3  9  1  0
  4  5  1  0
  4 10  1  0
  4 11  1  0
  5 12  1  0
  5 13  1  0
M  END
> <intraLJ>
-0.263    

> <intraEL>
1.550     

> <intraDihe>
2.184     

> <interLJ>
0.000     

> <interEJ>
0.000     

> <gridLJ>
-2.063    

> <gridEL>
0.000     

> <totalE>
1.408     

> <LGFE>
-2.063  

> <LE>
-0.413  

> <SMILES>
OCC1CC1

> <atom.dprop.GFE>
-0.27 -0.41 -0.49 -0.41 -0.48 0 0 0 0 0 0 0 0

> <atom.prop.CLASS>
MEOO PRPC PRPC PRPC PRPC NCLA NCLA NCLA NCLA NCLA NCLA NCLA NCLA

$$$$
4
     RDKit          3D

 13 13  0  0  0  0  0  0  0  0999 V2000
   21.1031   -3.3693  -27.5296 O   0  0  0  0  0  0  0  0  0  0  0  0
   21.2344   -4.7005  -26.9972 C   0  0  0  0  0  0  0  0  0  0  0  0
   19.9077   -5.3849  -27.3619 C   0  0  0  0  0  0  0  0  0  0  0  0
   18.7614   -5.1516  -26.4221 C   0  0  0  0  0  0  0  0  0  0  0  0
   19.4652   -6.4891  -26.4477 C   0  0  0  0  0  0  0  0  0  0  0  0
   21.8902   -2.8391  -27.3252 H   0  0  0  0  0  0  0  0  0  0  0  0
   21.3507   -4.6579  -25.9225 H   0  0  0  0  0  0  0  0  0  0  0  0
   22.0442   -5.2167  -27.4973 H   0  0  0  0  0  0  0  0  0  0  0  0
   19.6994   -5.4657  -28.4212 H   0  0  0  0  0  0  0  0  0  0  0  0
   17.7777   -5.1086  -26.8712 H   0  0  0  0  0  0  0  0  0  0  0  0
   18.9476   -4.5125  -25.5685 H   0  0  0  0  0  0  0  0  0  0  0  0
   20.0958   -6.7198  -25.5995 H   0  0  0  0  0  0  0  0  0  0  0  0
   18.9259   -7.3078  -26.9073 H   0  0  0  0  0  0  0  0  0  0  0  0
  1  2  1  0
  1  6  1  0
  2  3  1  0
  2  7  1  0
  2  8  1  0
  3  4  1  0
  3  5  1  0
  3  9  1  0
  4  5  1  0
  4 10  1  0
  4 11  1  0
  5 12  1  0
  5 13  1  0
M  END
> <intraLJ>
-0.263    

> <intraEL>
1.550     

> <intraDihe>
2.184     

> <interLJ>
0.000     

> <interEJ>
0.000     

> <gridLJ>
-2.003    

> <gridEL>
0.000     

> <totalE>
1.468     

> <LGFE>
-2.003  

> <LE>
-0.401  

> <SMILES>
OCC1CC1

> <atom.dprop.GFE>
-1.3 -0.14 -0.11 -0.31 -0.17 0 0 0 0 0 0 0 0

> <atom.prop.CLASS>
MEOO PRPC PRPC PRPC PRPC NCLA NCLA NCLA NCLA NCLA NCLA NCLA NCLA

$$$$
