45
     RDKit          3D

 13 13  0  0  0  0  0  0  0  0999 V2000
    1.5780   -2.0344   -6.4926 O   0  0  0  0  0  0  0  0  0  0  0  0
    1.1808   -2.6434   -5.3444 C   0  0  0  0  0  0  0  0  0  0  0  0
    1.1246   -1.8942   -4.1739 C   0  0  0  0  0  0  0  0  0  0  0  0
    0.7192   -2.5076   -2.9931 C   0  0  0  0  0  0  0  0  0  0  0  0
    0.3749   -3.8595   -2.9909 C   0  0  0  0  0  0  0  0  0  0  0  0
    0.4354   -4.6005   -4.1709 C   0  0  0  0  0  0  0  0  0  0  0  0
    0.8396   -3.9934   -5.3565 C   0  0  0  0  0  0  0  0  0  0  0  0
    1.5727   -2.6685   -7.2331 H   0  0  0  0  0  0  0  0  0  0  0  0
    1.3893   -0.8684   -4.1905 H   0  0  0  0  0  0  0  0  0  0  0  0
    0.6716   -1.9475   -2.0936 H   0  0  0  0  0  0  0  0  0  0  0  0
    0.0665   -4.3244   -2.0896 H   0  0  0  0  0  0  0  0  0  0  0  0
    0.1731   -5.6274   -4.1635 H   0  0  0  0  0  0  0  0  0  0  0  0
    0.8866   -4.5540   -6.2529 H   0  0  0  0  0  0  0  0  0  0  0  0
  1  2  1  0
  1  8  1  0
  2  3  2  0
  2  7  1  0
  3  4  1  0
  3  9  1  0
  4  5  2  0
  4 10  1  0
  5  6  1  0
  5 11  1  0
  6  7  2  0
  6 12  1  0
  7 13  1  0
M  END
> <intraLJ>
11.192    

> <intraEL>
-0.882    

> <intraDihe>
0.000     

> <interLJ>
0.000     

> <interEJ>
0.000     

> <gridLJ>
-3.213    

> <gridEL>
0.000     

> <totalE>
7.096     

> <LGFE>
-3.213  

> <LE>
-0.459  

> <SMILES>
Oc1ccccc1

> <atom.dprop.GFE>
-1.8 -0.29 -0.29 -0.19 -0.16 -0.22 -0.26 0 0 0 0 0 0

> <atom.prop.CLASS>
MEOO BENC BENC BENC BENC BENC BENC NCLA NCLA NCLA NCLA NCLA NCLA

$$$$
45
     RDKit          3D

 13 13  0  0  0  0  0  0  0  0999 V2000
  -15.1439    7.0972   -0.7649 O   0  0  0  0  0  0  0  0  0  0  0  0
  -16.1638    7.0922   -1.6632 C   0  0  0  0  0  0  0  0  0  0  0  0
  -17.1800    8.0322   -1.5276 C   0  0  0  0  0  0  0  0  0  0  0  0
  -18.2285    8.0361   -2.4418 C   0  0  0  0  0  0  0  0  0  0  0  0
  -18.2536    7.1043   -3.4798 C   0  0  0  0  0  0  0  0  0  0  0  0
  -17.2289    6.1665   -3.6053 C   0  0  0  0  0  0  0  0  0  0  0  0
  -16.1761    6.1568   -2.6947 C   0  0  0  0  0  0  0  0  0  0  0  0
  -14.5037    6.3921   -0.9736 H   0  0  0  0  0  0  0  0  0  0  0  0
  -17.1480    8.7336   -0.7342 H   0  0  0  0  0  0  0  0  0  0  0  0
  -19.0095    8.7478   -2.3500 H   0  0  0  0  0  0  0  0  0  0  0  0
  -19.0539    7.1095   -4.1748 H   0  0  0  0  0  0  0  0  0  0  0  0
  -17.2532    5.4607   -4.3955 H   0  0  0  0  0  0  0  0  0  0  0  0
  -15.3978    5.4458   -2.7879 H   0  0  0  0  0  0  0  0  0  0  0  0
  1  2  1  0
  1  8  1  0
  2  3  2  0
  2  7  1  0
  3  4  1  0
  3  9  1  0
  4  5  2  0
  4 10  1  0
  5  6  1  0
  5 11  1  0
  6  7  2  0
  6 12  1  0
  7 13  1  0
M  END
> <intraLJ>
11.192    

> <intraEL>
-0.882    

> <intraDihe>
0.000     

> <interLJ>
0.000     

> <interEJ>
0.000     

> <gridLJ>
-3.146    

> <gridEL>
0.000     

> <totalE>
7.163     

> <LGFE>
-3.146  

> <LE>
-0.449  

> <SMILES>
Oc1ccccc1

> <atom.dprop.GFE>
-1.6 -0.26 -0.25 -0.22 -0.21 -0.29 -0.3 0 0 0 0 0 0

> <atom.prop.CLASS>
MEOO BENC BENC BENC BENC BENC BENC NCLA NCLA NCLA NCLA NCLA NCLA

$$$$
45
     RDKit          3D

 13 13  0  0  0  0  0  0  0  0999 V2000
  -15.4451    6.4676   -1.3199 O   0  0  0  0  0  0  0  0  0  0  0  0
  -16.4600    6.4538   -2.2236 C   0  0  0  0  0  0  0  0  0  0  0  0
  -16.1569    6.2667   -3.5681 C   0  0  0  0  0  0  0  0  0  0  0  0
  -17.1882    6.2507   -4.5014 C   0  0  0  0  0  0  0  0  0  0  0  0
  -18.5090    6.4214   -4.0859 C   0  0  0  0  0  0  0  0  0  0  0  0
  -18.8005    6.6084   -2.7349 C   0  0  0  0  0  0  0  0  0  0  0  0
  -17.7738    6.6251   -1.7950 C   0  0  0  0  0  0  0  0  0  0  0  0
  -15.7932    6.6061   -0.4198 H   0  0  0  0  0  0  0  0  0  0  0  0
  -15.1492    6.1386   -3.8692 H   0  0  0  0  0  0  0  0  0  0  0  0
  -16.9707    6.1084   -5.5298 H   0  0  0  0  0  0  0  0  0  0  0  0
  -19.2928    6.4089   -4.7994 H   0  0  0  0  0  0  0  0  0  0  0  0
  -19.8056    6.7380   -2.4248 H   0  0  0  0  0  0  0  0  0  0  0  0
  -17.9929    6.7672   -0.7694 H   0  0  0  0  0  0  0  0  0  0  0  0
  1  2  1  0
  1  8  1  0
  2  3  2  0
  2  7  1  0
  3  4  1  0
  3  9  1  0
  4  5  2  0
  4 10  1  0
  5  6  1  0
  5 11  1  0
  6  7  2  0
  6 12  1  0
  7 13  1  0
M  END
> <intraLJ>
11.192    

> <intraEL>
-0.882    

> <intraDihe>
0.000     

> <interLJ>
0.000     

> <interEJ>
0.000     

> <gridLJ>
-2.963    

> <gridEL>
0.000     

> <totalE>
7.347     

> <LGFE>
-2.963  

> <LE>
-0.423  

> <SMILES>
Oc1ccccc1

> <atom.dprop.GFE>
-1.6 -0.26 -0.3 -0.18 -0.15 -0.21 -0.24 0 0 0 0 0 0

> <atom.prop.CLASS>
MEOO BENC BENC BENC BENC BENC BENC NCLA NCLA NCLA NCLA NCLA NCLA

$$$$
45
     RDKit          3D

 13 13  0  0  0  0  0  0  0  0999 V2000
  -25.2435    7.1071   22.2748 O   0  0  0  0  0  0  0  0  0  0  0  0
  -25.2374    5.8931   21.6638 C   0  0  0  0  0  0  0  0  0  0  0  0
  -26.3972    5.4551   21.0332 C   0  0  0  0  0  0  0  0  0  0  0  0
  -26.4018    4.2142   20.4046 C   0  0  0  0  0  0  0  0  0  0  0  0
  -25.2524    3.4237   20.4112 C   0  0  0  0  0  0  0  0  0  0  0  0
  -24.0954    3.8736   21.0470 C   0  0  0  0  0  0  0  0  0  0  0  0
  -24.0831    5.1145   21.6777 C   0  0  0  0  0  0  0  0  0  0  0  0
  -24.3734    7.2908   22.6745 H   0  0  0  0  0  0  0  0  0  0  0  0
  -27.2628    6.0661   21.0365 H   0  0  0  0  0  0  0  0  0  0  0  0
  -27.2796    3.8686   19.9197 H   0  0  0  0  0  0  0  0  0  0  0  0
  -25.2588    2.4784   19.9315 H   0  0  0  0  0  0  0  0  0  0  0  0
  -23.2251    3.2688   21.0493 H   0  0  0  0  0  0  0  0  0  0  0  0
  -23.2063    5.4576   22.1611 H   0  0  0  0  0  0  0  0  0  0  0  0
  1  2  1  0
  1  8  1  0
  2  3  2  0
  2  7  1  0
  3  4  1  0
  3  9  1  0
  4  5  2  0
  4 10  1  0
  5  6  1  0
  5 11  1  0
  6  7  2  0
  6 12  1  0
  7 13  1  0
M  END
> <intraLJ>
11.192    

> <intraEL>
-0.882    

> <intraDihe>
0.000     

> <interLJ>
0.000     

> <interEJ>
0.000     

> <gridLJ>
-2.805    

> <gridEL>
0.000     

> <totalE>
7.505     

> <LGFE>
-2.805  

> <LE>
-0.401  

> <SMILES>
Oc1ccccc1

> <atom.dprop.GFE>
-2 -0.12 -0.19 -0.15 -0.15 -0.087 -0.07 0 0 0 0 0 0

> <atom.prop.CLASS>
MEOO BENC BENC BENC BENC BENC BENC NCLA NCLA NCLA NCLA NCLA NCLA

$$$$
45
     RDKit          3D

 13 13  0  0  0  0  0  0  0  0999 V2000
  -19.0840    5.7343    6.4496 O   0  0  0  0  0  0  0  0  0  0  0  0
  -17.7806    5.4666    6.7261 C   0  0  0  0  0  0  0  0  0  0  0  0
  -17.1861    6.0898    7.8181 C   0  0  0  0  0  0  0  0  0  0  0  0
  -15.8526    5.8227    8.1102 C   0  0  0  0  0  0  0  0  0  0  0  0
  -15.1262    4.9388    7.3118 C   0  0  0  0  0  0  0  0  0  0  0  0
  -15.7333    4.3200    6.2192 C   0  0  0  0  0  0  0  0  0  0  0  0
  -17.0675    4.5820    5.9210 C   0  0  0  0  0  0  0  0  0  0  0  0
  -19.3744    5.2352    5.6640 H   0  0  0  0  0  0  0  0  0  0  0  0
  -17.7499    6.7590    8.4155 H   0  0  0  0  0  0  0  0  0  0  0  0
  -15.3873    6.2910    8.9404 H   0  0  0  0  0  0  0  0  0  0  0  0
  -14.1101    4.7372    7.5366 H   0  0  0  0  0  0  0  0  0  0  0  0
  -15.1767    3.6497    5.6157 H   0  0  0  0  0  0  0  0  0  0  0  0
  -17.5299    4.1138    5.0921 H   0  0  0  0  0  0  0  0  0  0  0  0
  1  2  1  0
  1  8  1  0
  2  3  2  0
  2  7  1  0
  3  4  1  0
  3  9  1  0
  4  5  2  0
  4 10  1  0
  5  6  1  0
  5 11  1  0
  6  7  2  0
  6 12  1  0
  7 13  1  0
M  END
> <intraLJ>
11.192    

> <intraEL>
-0.882    

> <intraDihe>
0.000     

> <interLJ>
0.000     

> <interEJ>
0.000     

> <gridLJ>
-2.772    

> <gridEL>
0.000     

> <totalE>
7.538     

> <LGFE>
-2.772  

> <LE>
-0.396  

> <SMILES>
Oc1ccccc1

> <atom.dprop.GFE>
-1 -0.26 -0.27 -0.26 -0.34 -0.35 -0.27 0 0 0 0 0 0

> <atom.prop.CLASS>
MEOO BENC BENC BENC BENC BENC BENC NCLA NCLA NCLA NCLA NCLA NCLA

$$$$
45
     RDKit          3D

 13 13  0  0  0  0  0  0  0  0999 V2000
   -1.2400   14.2261   -2.1268 O   0  0  0  0  0  0  0  0  0  0  0  0
   -2.4667   14.5351   -1.6300 C   0  0  0  0  0  0  0  0  0  0  0  0
   -3.5525   14.5664   -2.4987 C   0  0  0  0  0  0  0  0  0  0  0  0
   -4.8125   14.8813   -2.0007 C   0  0  0  0  0  0  0  0  0  0  0  0
   -4.9772   15.1618   -0.6440 C   0  0  0  0  0  0  0  0  0  0  0  0
   -3.8808   15.1275    0.2173 C   0  0  0  0  0  0  0  0  0  0  0  0
   -2.6169   14.8127   -0.2737 C   0  0  0  0  0  0  0  0  0  0  0  0
   -0.5724   14.2394   -1.4164 H   0  0  0  0  0  0  0  0  0  0  0  0
   -3.4124   14.3514   -3.5267 H   0  0  0  0  0  0  0  0  0  0  0  0
   -5.6489   14.9082   -2.6524 H   0  0  0  0  0  0  0  0  0  0  0  0
   -5.9385   15.4017   -0.2673 H   0  0  0  0  0  0  0  0  0  0  0  0
   -4.0115   15.3418    1.2470 H   0  0  0  0  0  0  0  0  0  0  0  0
   -1.7836   14.7864    0.3782 H   0  0  0  0  0  0  0  0  0  0  0  0
  1  2  1  0
  1  8  1  0
  2  3  2  0
  2  7  1  0
  3  4  1  0
  3  9  1  0
  4  5  2  0
  4 10  1  0
  5  6  1  0
  5 11  1  0
  6  7  2  0
  6 12  1  0
  7 13  1  0
M  END
> <intraLJ>
11.192    

> <intraEL>
-0.882    

> <intraDihe>
0.000     

> <interLJ>
0.000     

> <interEJ>
0.000     

> <gridLJ>
-2.637    

> <gridEL>
0.000     

> <totalE>
7.672     

> <LGFE>
-2.637  

> <LE>
-0.377  

> <SMILES>
Oc1ccccc1

> <atom.dprop.GFE>
-0.73 -0.37 -0.32 -0.24 -0.28 -0.33 -0.37 0 0 0 0 0 0

> <atom.prop.CLASS>
MEOO BENC BENC BENC BENC BENC BENC NCLA NCLA NCLA NCLA NCLA NCLA

$$$$
45
     RDKit          3D

 13 13  0  0  0  0  0  0  0  0999 V2000
  -22.1461    2.2386   22.9869 O   0  0  0  0  0  0  0  0  0  0  0  0
  -21.0077    1.5426   22.7286 C   0  0  0  0  0  0  0  0  0  0  0  0
  -19.8876    1.7735   23.5202 C   0  0  0  0  0  0  0  0  0  0  0  0
  -18.7173    1.0664   23.2646 C   0  0  0  0  0  0  0  0  0  0  0  0
  -18.6753    0.1380   22.2241 C   0  0  0  0  0  0  0  0  0  0  0  0
  -19.8050   -0.0848   21.4370 C   0  0  0  0  0  0  0  0  0  0  0  0
  -20.9798    0.6187   21.6871 C   0  0  0  0  0  0  0  0  0  0  0  0
  -22.8500    1.9825   22.3628 H   0  0  0  0  0  0  0  0  0  0  0  0
  -19.9340    2.4818   24.3068 H   0  0  0  0  0  0  0  0  0  0  0  0
  -17.8561    1.2327   23.8611 H   0  0  0  0  0  0  0  0  0  0  0  0
  -17.7821   -0.3993   22.0315 H   0  0  0  0  0  0  0  0  0  0  0  0
  -19.7674   -0.7909   20.6476 H   0  0  0  0  0  0  0  0  0  0  0  0
  -21.8380    0.4514   21.0908 H   0  0  0  0  0  0  0  0  0  0  0  0
  1  2  1  0
  1  8  1  0
  2  3  2  0
  2  7  1  0
  3  4  1  0
  3  9  1  0
  4  5  2  0
  4 10  1  0
  5  6  1  0
  5 11  1  0
  6  7  2  0
  6 12  1  0
  7 13  1  0
M  END
> <intraLJ>
11.192    

> <intraEL>
-0.882    

> <intraDihe>
0.000     

> <interLJ>
0.000     

> <interEJ>
0.000     

> <gridLJ>
-2.629    

> <gridEL>
0.000     

> <totalE>
7.681     

> <LGFE>
-2.629  

> <LE>
-0.376  

> <SMILES>
Oc1ccccc1

> <atom.dprop.GFE>
-1.6 -0.12 -0.11 -0.25 -0.23 -0.17 -0.15 0 0 0 0 0 0

> <atom.prop.CLASS>
MEOO BENC BENC BENC BENC BENC BENC NCLA NCLA NCLA NCLA NCLA NCLA

$$$$
45
     RDKit          3D

 13 13  0  0  0  0  0  0  0  0999 V2000
  -22.9196    2.8681   22.6035 O   0  0  0  0  0  0  0  0  0  0  0  0
  -21.9378    2.0051   22.2313 C   0  0  0  0  0  0  0  0  0  0  0  0
  -20.7562    1.9786   22.9647 C   0  0  0  0  0  0  0  0  0  0  0  0
  -19.7450    1.0990   22.5926 C   0  0  0  0  0  0  0  0  0  0  0  0
  -19.9212    0.2562   21.4949 C   0  0  0  0  0  0  0  0  0  0  0  0
  -21.1105    0.2920   20.7671 C   0  0  0  0  0  0  0  0  0  0  0  0
  -22.1272    1.1693   21.1338 C   0  0  0  0  0  0  0  0  0  0  0  0
  -23.6883    2.7850   22.0095 H   0  0  0  0  0  0  0  0  0  0  0  0
  -20.6362    2.6246   23.7959 H   0  0  0  0  0  0  0  0  0  0  0  0
  -18.8392    1.0685   23.1436 H   0  0  0  0  0  0  0  0  0  0  0  0
  -19.1488   -0.4129   21.2135 H   0  0  0  0  0  0  0  0  0  0  0  0
  -21.2389   -0.3501   19.9338 H   0  0  0  0  0  0  0  0  0  0  0  0
  -23.0302    1.1983   20.5826 H   0  0  0  0  0  0  0  0  0  0  0  0
  1  2  1  0
  1  8  1  0
  2  3  2  0
  2  7  1  0
  3  4  1  0
  3  9  1  0
  4  5  2  0
  4 10  1  0
  5  6  1  0
  5 11  1  0
  6  7  2  0
  6 12  1  0
  7 13  1  0
M  END
> <intraLJ>
11.192    

> <intraEL>
-0.882    

> <intraDihe>
0.000     

> <interLJ>
0.000     

> <interEJ>
0.000     

> <gridLJ>
-2.426    

> <gridEL>
0.000     

> <totalE>
7.883     

> <LGFE>
-2.426  

> <LE>
-0.347  

> <SMILES>
Oc1ccccc1

> <atom.dprop.GFE>
-1.6 -0.12 -0.12 -0.19 -0.19 -0.11 -0.094 0 0 0 0 0 0

> <atom.prop.CLASS>
MEOO BENC BENC BENC BENC BENC BENC NCLA NCLA NCLA NCLA NCLA NCLA

$$$$
45
     RDKit          3D

 13 13  0  0  0  0  0  0  0  0999 V2000
  -23.8741    3.0759    4.8921 O   0  0  0  0  0  0  0  0  0  0  0  0
  -23.4715    3.9125    3.8995 C   0  0  0  0  0  0  0  0  0  0  0  0
  -23.7242    3.5554    2.5792 C   0  0  0  0  0  0  0  0  0  0  0  0
  -23.3167    4.4045    1.5556 C   0  0  0  0  0  0  0  0  0  0  0  0
  -22.6621    5.5988    1.8579 C   0  0  0  0  0  0  0  0  0  0  0  0
  -22.4141    5.9460    3.1857 C   0  0  0  0  0  0  0  0  0  0  0  0
  -22.8195    5.1016    4.2155 C   0  0  0  0  0  0  0  0  0  0  0  0
  -23.6368    3.4433    5.7634 H   0  0  0  0  0  0  0  0  0  0  0  0
  -24.2221    2.6451    2.3646 H   0  0  0  0  0  0  0  0  0  0  0  0
  -23.5036    4.1442    0.5445 H   0  0  0  0  0  0  0  0  0  0  0  0
  -22.3524    6.2439    1.0758 H   0  0  0  0  0  0  0  0  0  0  0  0
  -21.9161    6.8543    3.4097 H   0  0  0  0  0  0  0  0  0  0  0  0
  -22.6320    5.3631    5.2237 H   0  0  0  0  0  0  0  0  0  0  0  0
  1  2  1  0
  1  8  1  0
  2  3  2  0
  2  7  1  0
  3  4  1  0
  3  9  1  0
  4  5  2  0
  4 10  1  0
  5  6  1  0
  5 11  1  0
  6  7  2  0
  6 12  1  0
  7 13  1  0
M  END
> <intraLJ>
11.192    

> <intraEL>
-0.882    

> <intraDihe>
0.000     

> <interLJ>
0.000     

> <interEJ>
0.000     

> <gridLJ>
-2.422    

> <gridEL>
0.000     

> <totalE>
7.888     

> <LGFE>
-2.422  

> <LE>
-0.346  

> <SMILES>
Oc1ccccc1

> <atom.dprop.GFE>
-1.1 -0.22 -0.25 -0.2 -0.2 -0.22 -0.22 0 0 0 0 0 0

> <atom.prop.CLASS>
MEOO BENC BENC BENC BENC BENC BENC NCLA NCLA NCLA NCLA NCLA NCLA

$$$$
45
     RDKit          3D

 13 13  0  0  0  0  0  0  0  0999 V2000
    9.8974   13.1151  -35.7540 O   0  0  0  0  0  0  0  0  0  0  0  0
    8.6811   12.7150  -36.2097 C   0  0  0  0  0  0  0  0  0  0  0  0
    7.5827   12.8142  -35.3621 C   0  0  0  0  0  0  0  0  0  0  0  0
    6.3332   12.4077  -35.8186 C   0  0  0  0  0  0  0  0  0  0  0  0
    6.1914   11.9068  -37.1129 C   0  0  0  0  0  0  0  0  0  0  0  0
    7.3003   11.8119  -37.9535 C   0  0  0  0  0  0  0  0  0  0  0  0
    8.5538   12.2173  -37.5040 C   0  0  0  0  0  0  0  0  0  0  0  0
   10.5757   12.9932  -36.4437 H   0  0  0  0  0  0  0  0  0  0  0  0
    7.7054   13.1963  -34.3816 H   0  0  0  0  0  0  0  0  0  0  0  0
    5.4874   12.4785  -35.1825 H   0  0  0  0  0  0  0  0  0  0  0  0
    5.2380   11.5976  -37.4579 H   0  0  0  0  0  0  0  0  0  0  0  0
    7.1869   11.4303  -38.9357 H   0  0  0  0  0  0  0  0  0  0  0  0
    9.3965   12.1458  -38.1402 H   0  0  0  0  0  0  0  0  0  0  0  0
  1  2  1  0
  1  8  1  0
  2  3  2  0
  2  7  1  0
  3  4  1  0
  3  9  1  0
  4  5  2  0
  4 10  1  0
  5  6  1  0
  5 11  1  0
  6  7  2  0
  6 12  1  0
  7 13  1  0
M  END
> <intraLJ>
11.192    

> <intraEL>
-0.882    

> <intraDihe>
0.000     

> <interLJ>
0.000     

> <interEJ>
0.000     

> <gridLJ>
-2.279    

> <gridEL>
0.000     

> <totalE>
8.031     

> <LGFE>
-2.279  

> <LE>
-0.326  

> <SMILES>
Oc1ccccc1

> <atom.dprop.GFE>
-1.5 -0.18 -0.15 -0.12 -0.12 -0.079 -0.15 0 0 0 0 0 0

> <atom.prop.CLASS>
MEOO BENC BENC BENC BENC BENC BENC NCLA NCLA NCLA NCLA NCLA NCLA

$$$$
45
     RDKit          3D

 13 13  0  0  0  0  0  0  0  0999 V2000
   22.5355    4.0823  -31.6186 O   0  0  0  0  0  0  0  0  0  0  0  0
   22.3638    3.1142  -30.6803 C   0  0  0  0  0  0  0  0  0  0  0  0
   21.1389    2.4589  -30.6108 C   0  0  0  0  0  0  0  0  0  0  0  0
   20.9526    1.4662  -29.6544 C   0  0  0  0  0  0  0  0  0  0  0  0
   21.9871    1.1376  -28.7780 C   0  0  0  0  0  0  0  0  0  0  0  0
   23.2109    1.8020  -28.8573 C   0  0  0  0  0  0  0  0  0  0  0  0
   23.4050    2.7961  -29.8121 C   0  0  0  0  0  0  0  0  0  0  0  0
   23.4332    4.4581  -31.5589 H   0  0  0  0  0  0  0  0  0  0  0  0
   20.3621    2.7191  -31.2827 H   0  0  0  0  0  0  0  0  0  0  0  0
   20.0235    0.9585  -29.5911 H   0  0  0  0  0  0  0  0  0  0  0  0
   21.8422    0.3809  -28.0500 H   0  0  0  0  0  0  0  0  0  0  0  0
   23.9933    1.5486  -28.1888 H   0  0  0  0  0  0  0  0  0  0  0  0
   24.3327    3.3016  -29.8736 H   0  0  0  0  0  0  0  0  0  0  0  0
  1  2  1  0
  1  8  1  0
  2  3  2  0
  2  7  1  0
  3  4  1  0
  3  9  1  0
  4  5  2  0
  4 10  1  0
  5  6  1  0
  5 11  1  0
  6  7  2  0
  6 12  1  0
  7 13  1  0
M  END
> <intraLJ>
11.192    

> <intraEL>
-0.882    

> <intraDihe>
0.000     

> <interLJ>
0.000     

> <interEJ>
0.000     

> <gridLJ>
-2.248    

> <gridEL>
0.000     

> <totalE>
8.062     

> <LGFE>
-2.248  

> <LE>
-0.321  

> <SMILES>
Oc1ccccc1

> <atom.dprop.GFE>
-1.5 -0.19 -0.13 -0.093 -0.12 -0.15 -0.11 0 0 0 0 0 0

> <atom.prop.CLASS>
MEOO BENC BENC BENC BENC BENC BENC NCLA NCLA NCLA NCLA NCLA NCLA

$$$$
45
     RDKit          3D

 13 13  0  0  0  0  0  0  0  0999 V2000
    7.9021   -5.3242    1.3752 O   0  0  0  0  0  0  0  0  0  0  0  0
    6.9905   -5.6421    2.3317 C   0  0  0  0  0  0  0  0  0  0  0  0
    5.9382   -6.4886    1.9988 C   0  0  0  0  0  0  0  0  0  0  0  0
    4.9997   -6.8206    2.9703 C   0  0  0  0  0  0  0  0  0  0  0  0
    5.1191   -6.3062    4.2615 C   0  0  0  0  0  0  0  0  0  0  0  0
    6.1786   -5.4581    4.5833 C   0  0  0  0  0  0  0  0  0  0  0  0
    7.1220   -5.1217    3.6166 C   0  0  0  0  0  0  0  0  0  0  0  0
    8.5823   -4.7277    1.7387 H   0  0  0  0  0  0  0  0  0  0  0  0
    5.8601   -6.8716    1.0140 H   0  0  0  0  0  0  0  0  0  0  0  0
    4.1927   -7.4655    2.7296 H   0  0  0  0  0  0  0  0  0  0  0  0
    4.4024   -6.5608    4.9998 H   0  0  0  0  0  0  0  0  0  0  0  0
    6.2643   -5.0698    5.5657 H   0  0  0  0  0  0  0  0  0  0  0  0
    7.9265   -4.4781    3.8586 H   0  0  0  0  0  0  0  0  0  0  0  0
  1  2  1  0
  1  8  1  0
  2  3  2  0
  2  7  1  0
  3  4  1  0
  3  9  1  0
  4  5  2  0
  4 10  1  0
  5  6  1  0
  5 11  1  0
  6  7  2  0
  6 12  1  0
  7 13  1  0
M  END
> <intraLJ>
11.192    

> <intraEL>
-0.882    

> <intraDihe>
0.000     

> <interLJ>
0.000     

> <interEJ>
0.000     

> <gridLJ>
-2.306    

> <gridEL>
0.000     

> <totalE>
8.004     

> <LGFE>
-2.306  

> <LE>
-0.329  

> <SMILES>
Oc1ccccc1

> <atom.dprop.GFE>
-1.2 -0.3 -0.21 -0.12 -0.082 -0.13 -0.25 0 0 0 0 0 0

> <atom.prop.CLASS>
MEOO BENC BENC BENC BENC BENC BENC NCLA NCLA NCLA NCLA NCLA NCLA

$$$$
45
     RDKit          3D

 13 13  0  0  0  0  0  0  0  0999 V2000
  -15.5738    6.9368  -17.2140 O   0  0  0  0  0  0  0  0  0  0  0  0
  -15.7368    7.6253  -16.0536 C   0  0  0  0  0  0  0  0  0  0  0  0
  -14.7167    8.4688  -15.6265 C   0  0  0  0  0  0  0  0  0  0  0  0
  -14.8734    9.1783  -14.4404 C   0  0  0  0  0  0  0  0  0  0  0  0
  -16.0432    9.0398  -13.6929 C   0  0  0  0  0  0  0  0  0  0  0  0
  -17.0591    8.1907  -14.1314 C   0  0  0  0  0  0  0  0  0  0  0  0
  -16.9097    7.4778  -15.3176 C   0  0  0  0  0  0  0  0  0  0  0  0
  -16.3579    6.3867  -17.3959 H   0  0  0  0  0  0  0  0  0  0  0  0
  -13.8337    8.5640  -16.2043 H   0  0  0  0  0  0  0  0  0  0  0  0
  -14.1033    9.8253  -14.1037 H   0  0  0  0  0  0  0  0  0  0  0  0
  -16.1598    9.5815  -12.7893 H   0  0  0  0  0  0  0  0  0  0  0  0
  -17.9455    8.0889  -13.5594 H   0  0  0  0  0  0  0  0  0  0  0  0
  -17.6792    6.8327  -15.6518 H   0  0  0  0  0  0  0  0  0  0  0  0
  1  2  1  0
  1  8  1  0
  2  3  2  0
  2  7  1  0
  3  4  1  0
  3  9  1  0
  4  5  2  0
  4 10  1  0
  5  6  1  0
  5 11  1  0
  6  7  2  0
  6 12  1  0
  7 13  1  0
M  END
> <intraLJ>
11.192    

> <intraEL>
-0.882    

> <intraDihe>
0.000     

> <interLJ>
0.000     

> <interEJ>
0.000     

> <gridLJ>
-2.267    

> <gridEL>
0.000     

> <totalE>
8.042     

> <LGFE>
-2.267  

> <LE>
-0.324  

> <SMILES>
Oc1ccccc1

> <atom.dprop.GFE>
-0.84 -0.2 -0.26 -0.24 -0.27 -0.23 -0.23 0 0 0 0 0 0

> <atom.prop.CLASS>
MEOO BENC BENC BENC BENC BENC BENC NCLA NCLA NCLA NCLA NCLA NCLA

$$$$
45
     RDKit          3D

 13 13  0  0  0  0  0  0  0  0999 V2000
  -26.0459   -4.4897    3.6965 O   0  0  0  0  0  0  0  0  0  0  0  0
  -27.3183   -4.9503    3.8222 C   0  0  0  0  0  0  0  0  0  0  0  0
  -28.3085   -4.0731    4.2520 C   0  0  0  0  0  0  0  0  0  0  0  0
  -29.6143   -4.5341    4.3838 C   0  0  0  0  0  0  0  0  0  0  0  0
  -29.9193   -5.8626    4.0868 C   0  0  0  0  0  0  0  0  0  0  0  0
  -28.9178   -6.7328    3.6568 C   0  0  0  0  0  0  0  0  0  0  0  0
  -27.6089   -6.2786    3.5220 C   0  0  0  0  0  0  0  0  0  0  0  0
  -25.4553   -5.2020    3.3893 H   0  0  0  0  0  0  0  0  0  0  0  0
  -28.0622   -3.0669    4.4742 H   0  0  0  0  0  0  0  0  0  0  0  0
  -30.3789   -3.8753    4.7102 H   0  0  0  0  0  0  0  0  0  0  0  0
  -30.9152   -6.2112    4.1883 H   0  0  0  0  0  0  0  0  0  0  0  0
  -29.1550   -7.7412    3.4329 H   0  0  0  0  0  0  0  0  0  0  0  0
  -26.8474   -6.9375    3.1963 H   0  0  0  0  0  0  0  0  0  0  0  0
  1  2  1  0
  1  8  1  0
  2  3  2  0
  2  7  1  0
  3  4  1  0
  3  9  1  0
  4  5  2  0
  4 10  1  0
  5  6  1  0
  5 11  1  0
  6  7  2  0
  6 12  1  0
  7 13  1  0
M  END
> <intraLJ>
11.192    

> <intraEL>
-0.882    

> <intraDihe>
0.000     

> <interLJ>
0.000     

> <interEJ>
0.000     

> <gridLJ>
-2.232    

> <gridEL>
0.000     

> <totalE>
8.077     

> <LGFE>
-2.232  

> <LE>
-0.319  

> <SMILES>
Oc1ccccc1

> <atom.dprop.GFE>
-1.3 -0.19 -0.16 -0.14 -0.14 -0.15 -0.17 0 0 0 0 0 0

> <atom.prop.CLASS>
MEOO BENC BENC BENC BENC BENC BENC NCLA NCLA NCLA NCLA NCLA NCLA

$$$$
45
     RDKit          3D

 13 13  0  0  0  0  0  0  0  0999 V2000
  -39.5763    7.0813   22.1678 O   0  0  0  0  0  0  0  0  0  0  0  0
  -39.5564    6.5285   20.9264 C   0  0  0  0  0  0  0  0  0  0  0  0
  -39.6760    7.3628   19.8199 C   0  0  0  0  0  0  0  0  0  0  0  0
  -39.6565    6.8074   18.5448 C   0  0  0  0  0  0  0  0  0  0  0  0
  -39.5188    5.4283   18.3856 C   0  0  0  0  0  0  0  0  0  0  0  0
  -39.3999    4.6018   19.5028 C   0  0  0  0  0  0  0  0  0  0  0  0
  -39.4180    5.1504   20.7820 C   0  0  0  0  0  0  0  0  0  0  0  0
  -39.4842    6.3901   22.8492 H   0  0  0  0  0  0  0  0  0  0  0  0
  -39.7802    8.4084   19.9560 H   0  0  0  0  0  0  0  0  0  0  0  0
  -39.7464    7.4325   17.6926 H   0  0  0  0  0  0  0  0  0  0  0  0
  -39.5045    5.0078   17.4127 H   0  0  0  0  0  0  0  0  0  0  0  0
  -39.2959    3.5548   19.3762 H   0  0  0  0  0  0  0  0  0  0  0  0
  -39.3283    4.5250   21.6311 H   0  0  0  0  0  0  0  0  0  0  0  0
  1  2  1  0
  1  8  1  0
  2  3  2  0
  2  7  1  0
  3  4  1  0
  3  9  1  0
  4  5  2  0
  4 10  1  0
  5  6  1  0
  5 11  1  0
  6  7  2  0
  6 12  1  0
  7 13  1  0
M  END
> <intraLJ>
11.192    

> <intraEL>
-0.882    

> <intraDihe>
0.000     

> <interLJ>
0.000     

> <interEJ>
0.000     

> <gridLJ>
-2.257    

> <gridEL>
0.000     

> <totalE>
8.053     

> <LGFE>
-2.257  

> <LE>
-0.322  

> <SMILES>
Oc1ccccc1

> <atom.dprop.GFE>
-0.65 -0.3 -0.27 -0.27 -0.24 -0.23 -0.28 0 0 0 0 0 0

> <atom.prop.CLASS>
MEOO BENC BENC BENC BENC BENC BENC NCLA NCLA NCLA NCLA NCLA NCLA

$$$$
45
     RDKit          3D

 13 13  0  0  0  0  0  0  0  0999 V2000
   -5.8756   -7.7435    2.4924 O   0  0  0  0  0  0  0  0  0  0  0  0
   -6.7380   -8.7886    2.5974 C   0  0  0  0  0  0  0  0  0  0  0  0
   -6.2773  -10.0686    2.3076 C   0  0  0  0  0  0  0  0  0  0  0  0
   -7.1517  -11.1454    2.4122 C   0  0  0  0  0  0  0  0  0  0  0  0
   -8.4742  -10.9358    2.8035 C   0  0  0  0  0  0  0  0  0  0  0  0
   -8.9246   -9.6476    3.0913 C   0  0  0  0  0  0  0  0  0  0  0  0
   -8.0554   -8.5651    2.9894 C   0  0  0  0  0  0  0  0  0  0  0  0
   -6.3237   -6.9086    2.7222 H   0  0  0  0  0  0  0  0  0  0  0  0
   -5.2704  -10.2127    2.0114 H   0  0  0  0  0  0  0  0  0  0  0  0
   -6.8129  -12.1267    2.1945 H   0  0  0  0  0  0  0  0  0  0  0  0
   -9.1383  -11.7582    2.8821 H   0  0  0  0  0  0  0  0  0  0  0  0
   -9.9305   -9.4940    3.3877 H   0  0  0  0  0  0  0  0  0  0  0  0
   -8.3953   -7.5868    3.2070 H   0  0  0  0  0  0  0  0  0  0  0  0
  1  2  1  0
  1  8  1  0
  2  3  2  0
  2  7  1  0
  3  4  1  0
  3  9  1  0
  4  5  2  0
  4 10  1  0
  5  6  1  0
  5 11  1  0
  6  7  2  0
  6 12  1  0
  7 13  1  0
M  END
> <intraLJ>
11.192    

> <intraEL>
-0.882    

> <intraDihe>
0.000     

> <interLJ>
0.000     

> <interEJ>
0.000     

> <gridLJ>
-2.269    

> <gridEL>
0.000     

> <totalE>
8.041     

> <LGFE>
-2.269  

> <LE>
-0.324  

> <SMILES>
Oc1ccccc1

> <atom.dprop.GFE>
-1.2 -0.14 -0.19 -0.21 -0.18 -0.15 -0.17 0 0 0 0 0 0

> <atom.prop.CLASS>
MEOO BENC BENC BENC BENC BENC BENC NCLA NCLA NCLA NCLA NCLA NCLA

$$$$
45
     RDKit          3D

 13 13  0  0  0  0  0  0  0  0999 V2000
  -19.2793   -5.7604   24.9272 O   0  0  0  0  0  0  0  0  0  0  0  0
  -19.9026   -6.5295   25.8585 C   0  0  0  0  0  0  0  0  0  0  0  0
  -20.6330   -7.6345   25.4343 C   0  0  0  0  0  0  0  0  0  0  0  0
  -21.2746   -8.4285   26.3791 C   0  0  0  0  0  0  0  0  0  0  0  0
  -21.1820   -8.1135   27.7350 C   0  0  0  0  0  0  0  0  0  0  0  0
  -20.4467   -7.0027   28.1482 C   0  0  0  0  0  0  0  0  0  0  0  0
  -19.8016   -6.2037   27.2086 C   0  0  0  0  0  0  0  0  0  0  0  0
  -18.8060   -5.0239   25.3562 H   0  0  0  0  0  0  0  0  0  0  0  0
  -20.6948   -7.8615   24.4012 H   0  0  0  0  0  0  0  0  0  0  0  0
  -21.8345   -9.2743   26.0690 H   0  0  0  0  0  0  0  0  0  0  0  0
  -21.6721   -8.7202   28.4528 H   0  0  0  0  0  0  0  0  0  0  0  0
  -20.3801   -6.7677   29.1795 H   0  0  0  0  0  0  0  0  0  0  0  0
  -19.2434   -5.3602   27.5200 H   0  0  0  0  0  0  0  0  0  0  0  0
  1  2  1  0
  1  8  1  0
  2  3  2  0
  2  7  1  0
  3  4  1  0
  3  9  1  0
  4  5  2  0
  4 10  1  0
  5  6  1  0
  5 11  1  0
  6  7  2  0
  6 12  1  0
  7 13  1  0
M  END
> <intraLJ>
11.192    

> <intraEL>
-0.882    

> <intraDihe>
0.000     

> <interLJ>
0.000     

> <interEJ>
0.000     

> <gridLJ>
-2.222    

> <gridEL>
0.000     

> <totalE>
8.087     

> <LGFE>
-2.222  

> <LE>
-0.317  

> <SMILES>
Oc1ccccc1

> <atom.dprop.GFE>
-1.1 -0.16 -0.17 -0.21 -0.21 -0.18 -0.16 0 0 0 0 0 0

> <atom.prop.CLASS>
MEOO BENC BENC BENC BENC BENC BENC NCLA NCLA NCLA NCLA NCLA NCLA

$$$$
45
     RDKit          3D

 13 13  0  0  0  0  0  0  0  0999 V2000
   -6.0559   -7.7853    2.3656 O   0  0  0  0  0  0  0  0  0  0  0  0
   -6.2204   -9.1259    2.2137 C   0  0  0  0  0  0  0  0  0  0  0  0
   -7.4422   -9.6938    2.5591 C   0  0  0  0  0  0  0  0  0  0  0  0
   -7.6214  -11.0649    2.4074 C   0  0  0  0  0  0  0  0  0  0  0  0
   -6.5825  -11.8547    1.9141 C   0  0  0  0  0  0  0  0  0  0  0  0
   -5.3618  -11.2736    1.5713 C   0  0  0  0  0  0  0  0  0  0  0  0
   -5.1752   -9.9022    1.7199 C   0  0  0  0  0  0  0  0  0  0  0  0
   -5.1598   -7.5193    2.0885 H   0  0  0  0  0  0  0  0  0  0  0  0
   -8.2221   -9.0817    2.9328 H   0  0  0  0  0  0  0  0  0  0  0  0
   -8.5483  -11.5105    2.6667 H   0  0  0  0  0  0  0  0  0  0  0  0
   -6.7219  -12.8992    1.7997 H   0  0  0  0  0  0  0  0  0  0  0  0
   -4.5759  -11.8784    1.1974 H   0  0  0  0  0  0  0  0  0  0  0  0
   -4.2496   -9.4595    1.4607 H   0  0  0  0  0  0  0  0  0  0  0  0
  1  2  1  0
  1  8  1  0
  2  3  2  0
  2  7  1  0
  3  4  1  0
  3  9  1  0
  4  5  2  0
  4 10  1  0
  5  6  1  0
  5 11  1  0
  6  7  2  0
  6 12  1  0
  7 13  1  0
M  END
> <intraLJ>
11.192    

> <intraEL>
-0.882    

> <intraDihe>
0.000     

> <interLJ>
0.000     

> <interEJ>
0.000     

> <gridLJ>
-2.223    

> <gridEL>
0.000     

> <totalE>
8.086     

> <LGFE>
-2.223  

> <LE>
-0.318  

> <SMILES>
Oc1ccccc1

> <atom.dprop.GFE>
-1.2 -0.14 -0.15 -0.21 -0.2 -0.16 -0.13 0 0 0 0 0 0

> <atom.prop.CLASS>
MEOO BENC BENC BENC BENC BENC BENC NCLA NCLA NCLA NCLA NCLA NCLA

$$$$
45
     RDKit          3D

 13 13  0  0  0  0  0  0  0  0999 V2000
   -1.1220    1.8744    8.6239 O   0  0  0  0  0  0  0  0  0  0  0  0
   -1.5312    2.9595    9.3326 C   0  0  0  0  0  0  0  0  0  0  0  0
   -2.3923    3.8688    8.7274 C   0  0  0  0  0  0  0  0  0  0  0  0
   -2.8174    4.9826    9.4440 C   0  0  0  0  0  0  0  0  0  0  0  0
   -2.3804    5.1788   10.7543 C   0  0  0  0  0  0  0  0  0  0  0  0
   -1.5167    4.2601   11.3504 C   0  0  0  0  0  0  0  0  0  0  0  0
   -1.0874    3.1428   10.6398 C   0  0  0  0  0  0  0  0  0  0  0  0
   -0.5254    1.3222    9.1620 H   0  0  0  0  0  0  0  0  0  0  0  0
   -2.7158    3.7071    7.7316 H   0  0  0  0  0  0  0  0  0  0  0  0
   -3.4744    5.6835    8.9943 H   0  0  0  0  0  0  0  0  0  0  0  0
   -2.7058    6.0286   11.2978 H   0  0  0  0  0  0  0  0  0  0  0  0
   -1.1875    4.4142   12.3459 H   0  0  0  0  0  0  0  0  0  0  0  0
   -0.4318    2.4447   11.0902 H   0  0  0  0  0  0  0  0  0  0  0  0
  1  2  1  0
  1  8  1  0
  2  3  2  0
  2  7  1  0
  3  4  1  0
  3  9  1  0
  4  5  2  0
  4 10  1  0
  5  6  1  0
  5 11  1  0
  6  7  2  0
  6 12  1  0
  7 13  1  0
M  END
> <intraLJ>
11.192    

> <intraEL>
-0.882    

> <intraDihe>
0.000     

> <interLJ>
0.000     

> <interEJ>
0.000     

> <gridLJ>
-2.177    

> <gridEL>
0.000     

> <totalE>
8.132     

> <LGFE>
-2.177  

> <LE>
-0.311  

> <SMILES>
Oc1ccccc1

> <atom.dprop.GFE>
-0.95 -0.26 -0.26 -0.2 -0.18 -0.17 -0.16 0 0 0 0 0 0

> <atom.prop.CLASS>
MEOO BENC BENC BENC BENC BENC BENC NCLA NCLA NCLA NCLA NCLA NCLA

$$$$
45
     RDKit          3D

 13 13  0  0  0  0  0  0  0  0999 V2000
   17.3031    7.2611   -3.7419 O   0  0  0  0  0  0  0  0  0  0  0  0
   17.8407    6.9780   -4.9576 C   0  0  0  0  0  0  0  0  0  0  0  0
   16.9891    6.8201   -6.0459 C   0  0  0  0  0  0  0  0  0  0  0  0
   17.5288    6.5304   -7.2948 C   0  0  0  0  0  0  0  0  0  0  0  0
   18.9096    6.4009   -7.4459 C   0  0  0  0  0  0  0  0  0  0  0  0
   19.7535    6.5614   -6.3471 C   0  0  0  0  0  0  0  0  0  0  0  0
   19.2207    6.8518   -5.0943 C   0  0  0  0  0  0  0  0  0  0  0  0
   18.0055    7.3459   -3.0711 H   0  0  0  0  0  0  0  0  0  0  0  0
   15.9424    6.9210   -5.9162 H   0  0  0  0  0  0  0  0  0  0  0  0
   16.8905    6.4080   -8.1330 H   0  0  0  0  0  0  0  0  0  0  0  0
   19.3181    6.1800   -8.3988 H   0  0  0  0  0  0  0  0  0  0  0  0
   20.8017    6.4615   -6.4675 H   0  0  0  0  0  0  0  0  0  0  0  0
   19.8593    6.9736   -4.2592 H   0  0  0  0  0  0  0  0  0  0  0  0
  1  2  1  0
  1  8  1  0
  2  3  2  0
  2  7  1  0
  3  4  1  0
  3  9  1  0
  4  5  2  0
  4 10  1  0
  5  6  1  0
  5 11  1  0
  6  7  2  0
  6 12  1  0
  7 13  1  0
M  END
> <intraLJ>
11.192    

> <intraEL>
-0.882    

> <intraDihe>
0.000     

> <interLJ>
0.000     

> <interEJ>
0.000     

> <gridLJ>
-2.141    

> <gridEL>
0.000     

> <totalE>
8.169     

> <LGFE>
-2.141  

> <LE>
-0.306  

> <SMILES>
Oc1ccccc1

> <atom.dprop.GFE>
-0.65 -0.27 -0.28 -0.23 -0.24 -0.24 -0.23 0 0 0 0 0 0

> <atom.prop.CLASS>
MEOO BENC BENC BENC BENC BENC BENC NCLA NCLA NCLA NCLA NCLA NCLA

$$$$
45
     RDKit          3D

 13 13  0  0  0  0  0  0  0  0999 V2000
  -23.2641    8.9485   13.3320 O   0  0  0  0  0  0  0  0  0  0  0  0
  -24.1828    8.3644   12.5185 C   0  0  0  0  0  0  0  0  0  0  0  0
  -23.8117    8.0311   11.2201 C   0  0  0  0  0  0  0  0  0  0  0  0
  -24.7442    7.4326   10.3792 C   0  0  0  0  0  0  0  0  0  0  0  0
  -26.0351    7.1731   10.8400 C   0  0  0  0  0  0  0  0  0  0  0  0
  -26.3956    7.5120   12.1440 C   0  0  0  0  0  0  0  0  0  0  0  0
  -25.4677    8.1107   12.9916 C   0  0  0  0  0  0  0  0  0  0  0  0
  -23.6518    9.1286   14.2083 H   0  0  0  0  0  0  0  0  0  0  0  0
  -22.8278    8.2344   10.8836 H   0  0  0  0  0  0  0  0  0  0  0  0
  -24.4739    7.1731    9.3869 H   0  0  0  0  0  0  0  0  0  0  0  0
  -26.7437    6.7170   10.1969 H   0  0  0  0  0  0  0  0  0  0  0  0
  -27.3778    7.3129   12.4888 H   0  0  0  0  0  0  0  0  0  0  0  0
  -25.7394    8.3690   13.9813 H   0  0  0  0  0  0  0  0  0  0  0  0
  1  2  1  0
  1  8  1  0
  2  3  2  0
  2  7  1  0
  3  4  1  0
  3  9  1  0
  4  5  2  0
  4 10  1  0
  5  6  1  0
  5 11  1  0
  6  7  2  0
  6 12  1  0
  7 13  1  0
M  END
> <intraLJ>
11.192    

> <intraEL>
-0.882    

> <intraDihe>
0.000     

> <interLJ>
0.000     

> <interEJ>
0.000     

> <gridLJ>
-2.130    

> <gridEL>
0.000     

> <totalE>
8.179     

> <LGFE>
-2.130  

> <LE>
-0.304  

> <SMILES>
Oc1ccccc1

> <atom.dprop.GFE>
-0.86 -0.25 -0.24 -0.24 -0.18 -0.11 -0.25 0 0 0 0 0 0

> <atom.prop.CLASS>
MEOO BENC BENC BENC BENC BENC BENC NCLA NCLA NCLA NCLA NCLA NCLA

$$$$
45
     RDKit          3D

 13 13  0  0  0  0  0  0  0  0999 V2000
    3.2715    0.9162  -37.6512 O   0  0  0  0  0  0  0  0  0  0  0  0
    2.8761    1.8831  -38.5207 C   0  0  0  0  0  0  0  0  0  0  0  0
    3.7649    2.3026  -39.5049 C   0  0  0  0  0  0  0  0  0  0  0  0
    3.3703    3.2914  -40.4002 C   0  0  0  0  0  0  0  0  0  0  0  0
    2.0961    3.8514  -40.3053 C   0  0  0  0  0  0  0  0  0  0  0  0
    1.2137    3.4226  -39.3139 C   0  0  0  0  0  0  0  0  0  0  0  0
    1.6013    2.4332  -38.4148 C   0  0  0  0  0  0  0  0  0  0  0  0
    2.5581    0.7170  -37.0172 H   0  0  0  0  0  0  0  0  0  0  0  0
    4.7296    1.8685  -39.5649 H   0  0  0  0  0  0  0  0  0  0  0  0
    4.0383    3.6200  -41.1557 H   0  0  0  0  0  0  0  0  0  0  0  0
    1.7982    4.6049  -40.9887 H   0  0  0  0  0  0  0  0  0  0  0  0
    0.2471    3.8518  -39.2461 H   0  0  0  0  0  0  0  0  0  0  0  0
    0.9334    2.1067  -37.6616 H   0  0  0  0  0  0  0  0  0  0  0  0
  1  2  1  0
  1  8  1  0
  2  3  2  0
  2  7  1  0
  3  4  1  0
  3  9  1  0
  4  5  2  0
  4 10  1  0
  5  6  1  0
  5 11  1  0
  6  7  2  0
  6 12  1  0
  7 13  1  0
M  END
> <intraLJ>
11.192    

> <intraEL>
-0.882    

> <intraDihe>
0.000     

> <interLJ>
0.000     

> <interEJ>
0.000     

> <gridLJ>
-2.109    

> <gridEL>
0.000     

> <totalE>
8.200     

> <LGFE>
-2.109  

> <LE>
-0.301  

> <SMILES>
Oc1ccccc1

> <atom.dprop.GFE>
-0.96 -0.22 -0.21 -0.21 -0.19 -0.15 -0.17 0 0 0 0 0 0

> <atom.prop.CLASS>
MEOO BENC BENC BENC BENC BENC BENC NCLA NCLA NCLA NCLA NCLA NCLA

$$$$
45
     RDKit          3D

 13 13  0  0  0  0  0  0  0  0999 V2000
   20.8981   16.0721   -4.7019 O   0  0  0  0  0  0  0  0  0  0  0  0
   21.8614   15.1163   -4.7775 C   0  0  0  0  0  0  0  0  0  0  0  0
   21.9197   14.1445   -3.7842 C   0  0  0  0  0  0  0  0  0  0  0  0
   22.9015   13.1615   -3.8520 C   0  0  0  0  0  0  0  0  0  0  0  0
   23.8140   13.1573   -4.9073 C   0  0  0  0  0  0  0  0  0  0  0  0
   23.7456   14.1373   -5.8974 C   0  0  0  0  0  0  0  0  0  0  0  0
   22.7655   15.1239   -5.8365 C   0  0  0  0  0  0  0  0  0  0  0  0
   20.9691   16.6866   -5.4555 H   0  0  0  0  0  0  0  0  0  0  0  0
   21.2203   14.1602   -2.9885 H   0  0  0  0  0  0  0  0  0  0  0  0
   22.9567   12.4143   -3.1012 H   0  0  0  0  0  0  0  0  0  0  0  0
   24.5613   12.4071   -4.9564 H   0  0  0  0  0  0  0  0  0  0  0  0
   24.4416   14.1297   -6.6966 H   0  0  0  0  0  0  0  0  0  0  0  0
   22.7121   15.8686   -6.5866 H   0  0  0  0  0  0  0  0  0  0  0  0
  1  2  1  0
  1  8  1  0
  2  3  2  0
  2  7  1  0
  3  4  1  0
  3  9  1  0
  4  5  2  0
  4 10  1  0
  5  6  1  0
  5 11  1  0
  6  7  2  0
  6 12  1  0
  7 13  1  0
M  END
> <intraLJ>
11.192    

> <intraEL>
-0.882    

> <intraDihe>
0.000     

> <interLJ>
0.000     

> <interEJ>
0.000     

> <gridLJ>
-2.104    

> <gridEL>
0.000     

> <totalE>
8.205     

> <LGFE>
-2.104  

> <LE>
-0.301  

> <SMILES>
Oc1ccccc1

> <atom.dprop.GFE>
-0.74 -0.32 -0.29 -0.23 -0.16 -0.16 -0.21 0 0 0 0 0 0

> <atom.prop.CLASS>
MEOO BENC BENC BENC BENC BENC BENC NCLA NCLA NCLA NCLA NCLA NCLA

$$$$
45
     RDKit          3D

 13 13  0  0  0  0  0  0  0  0999 V2000
   -6.3887   11.9174   -7.1441 O   0  0  0  0  0  0  0  0  0  0  0  0
   -6.2958   11.0856   -8.2148 C   0  0  0  0  0  0  0  0  0  0  0  0
   -7.3004   11.1171   -9.1763 C   0  0  0  0  0  0  0  0  0  0  0  0
   -7.2150   10.2701  -10.2763 C   0  0  0  0  0  0  0  0  0  0  0  0
   -6.1312    9.4013  -10.4065 C   0  0  0  0  0  0  0  0  0  0  0  0
   -5.1301    9.3787   -9.4357 C   0  0  0  0  0  0  0  0  0  0  0  0
   -5.2084   10.2238   -8.3323 C   0  0  0  0  0  0  0  0  0  0  0  0
   -5.6246   11.7948   -6.5510 H   0  0  0  0  0  0  0  0  0  0  0  0
   -8.1178   11.7819   -9.0642 H   0  0  0  0  0  0  0  0  0  0  0  0
   -7.9742   10.2844  -11.0169 H   0  0  0  0  0  0  0  0  0  0  0  0
   -6.0689    8.7568  -11.2458 H   0  0  0  0  0  0  0  0  0  0  0  0
   -4.3092    8.7165   -9.5394 H   0  0  0  0  0  0  0  0  0  0  0  0
   -4.4499   10.2079   -7.5944 H   0  0  0  0  0  0  0  0  0  0  0  0
  1  2  1  0
  1  8  1  0
  2  3  2  0
  2  7  1  0
  3  4  1  0
  3  9  1  0
  4  5  2  0
  4 10  1  0
  5  6  1  0
  5 11  1  0
  6  7  2  0
  6 12  1  0
  7 13  1  0
M  END
> <intraLJ>
11.192    

> <intraEL>
-0.882    

> <intraDihe>
0.000     

> <interLJ>
0.000     

> <interEJ>
0.000     

> <gridLJ>
-2.093    

> <gridEL>
0.000     

> <totalE>
8.216     

> <LGFE>
-2.093  

> <LE>
-0.299  

> <SMILES>
Oc1ccccc1

> <atom.dprop.GFE>
-0.72 -0.28 -0.21 -0.21 -0.2 -0.23 -0.25 0 0 0 0 0 0

> <atom.prop.CLASS>
MEOO BENC BENC BENC BENC BENC BENC NCLA NCLA NCLA NCLA NCLA NCLA

$$$$
45
     RDKit          3D

 13 13  0  0  0  0  0  0  0  0999 V2000
  -30.1072   -9.5038   23.1187 O   0  0  0  0  0  0  0  0  0  0  0  0
  -29.8129   -9.9435   24.3705 C   0  0  0  0  0  0  0  0  0  0  0  0
  -28.5039  -10.3147   24.6592 C   0  0  0  0  0  0  0  0  0  0  0  0
  -28.1917  -10.7659   25.9374 C   0  0  0  0  0  0  0  0  0  0  0  0
  -29.1858  -10.8428   26.9132 C   0  0  0  0  0  0  0  0  0  0  0  0
  -30.4949  -10.4680   26.6116 C   0  0  0  0  0  0  0  0  0  0  0  0
  -30.8148  -10.0149   25.3349 C   0  0  0  0  0  0  0  0  0  0  0  0
  -31.0533   -9.2779   23.0514 H   0  0  0  0  0  0  0  0  0  0  0  0
  -27.7593  -10.2513   23.9081 H   0  0  0  0  0  0  0  0  0  0  0  0
  -27.1972  -11.0516   26.1708 H   0  0  0  0  0  0  0  0  0  0  0  0
  -28.9450  -11.1872   27.8863 H   0  0  0  0  0  0  0  0  0  0  0  0
  -31.2463  -10.5288   27.3566 H   0  0  0  0  0  0  0  0  0  0  0  0
  -31.8077   -9.7304   25.1039 H   0  0  0  0  0  0  0  0  0  0  0  0
  1  2  1  0
  1  8  1  0
  2  3  2  0
  2  7  1  0
  3  4  1  0
  3  9  1  0
  4  5  2  0
  4 10  1  0
  5  6  1  0
  5 11  1  0
  6  7  2  0
  6 12  1  0
  7 13  1  0
M  END
> <intraLJ>
11.192    

> <intraEL>
-0.882    

> <intraDihe>
0.000     

> <interLJ>
0.000     

> <interEJ>
0.000     

> <gridLJ>
-2.051    

> <gridEL>
0.000     

> <totalE>
8.259     

> <LGFE>
-2.051  

> <LE>
-0.293  

> <SMILES>
Oc1ccccc1

> <atom.dprop.GFE>
-0.72 -0.26 -0.24 -0.23 -0.21 -0.17 -0.22 0 0 0 0 0 0

> <atom.prop.CLASS>
MEOO BENC BENC BENC BENC BENC BENC NCLA NCLA NCLA NCLA NCLA NCLA

$$$$
45
     RDKit          3D

 13 13  0  0  0  0  0  0  0  0999 V2000
   17.7098   13.1799  -34.1847 O   0  0  0  0  0  0  0  0  0  0  0  0
   16.6133   13.9611  -34.3703 C   0  0  0  0  0  0  0  0  0  0  0  0
   15.3780   13.3485  -34.5534 C   0  0  0  0  0  0  0  0  0  0  0  0
   14.2492   14.1386  -34.7439 C   0  0  0  0  0  0  0  0  0  0  0  0
   14.3629   15.5291  -34.7504 C   0  0  0  0  0  0  0  0  0  0  0  0
   15.6070   16.1318  -34.5660 C   0  0  0  0  0  0  0  0  0  0  0  0
   16.7411   15.3477  -34.3742 C   0  0  0  0  0  0  0  0  0  0  0  0
   18.5050   13.7322  -34.0696 H   0  0  0  0  0  0  0  0  0  0  0  0
   15.3068   12.2914  -34.5463 H   0  0  0  0  0  0  0  0  0  0  0  0
   13.3012   13.6841  -34.8842 H   0  0  0  0  0  0  0  0  0  0  0  0
   13.5010   16.1287  -34.8961 H   0  0  0  0  0  0  0  0  0  0  0  0
   15.6877   17.1885  -34.5723 H   0  0  0  0  0  0  0  0  0  0  0  0
   17.6861   15.8031  -34.2345 H   0  0  0  0  0  0  0  0  0  0  0  0
  1  2  1  0
  1  8  1  0
  2  3  2  0
  2  7  1  0
  3  4  1  0
  3  9  1  0
  4  5  2  0
  4 10  1  0
  5  6  1  0
  5 11  1  0
  6  7  2  0
  6 12  1  0
  7 13  1  0
M  END
> <intraLJ>
11.192    

> <intraEL>
-0.882    

> <intraDihe>
0.000     

> <interLJ>
0.000     

> <interEJ>
0.000     

> <gridLJ>
-2.017    

> <gridEL>
0.000     

> <totalE>
8.293     

> <LGFE>
-2.017  

> <LE>
-0.288  

> <SMILES>
Oc1ccccc1

> <atom.dprop.GFE>
-0.86 -0.26 -0.21 -0.1 -0.15 -0.21 -0.22 0 0 0 0 0 0

> <atom.prop.CLASS>
MEOO BENC BENC BENC BENC BENC BENC NCLA NCLA NCLA NCLA NCLA NCLA

$$$$
45
     RDKit          3D

 13 13  0  0  0  0  0  0  0  0999 V2000
   17.3694   14.8194   -1.9987 O   0  0  0  0  0  0  0  0  0  0  0  0
   17.9261   15.2371   -3.1661 C   0  0  0  0  0  0  0  0  0  0  0  0
   17.4808   16.4270   -3.7322 C   0  0  0  0  0  0  0  0  0  0  0  0
   18.0440   16.8638   -4.9267 C   0  0  0  0  0  0  0  0  0  0  0  0
   19.0433   16.1112   -5.5441 C   0  0  0  0  0  0  0  0  0  0  0  0
   19.4814   14.9195   -4.9669 C   0  0  0  0  0  0  0  0  0  0  0  0
   18.9230   14.4762   -3.7714 C   0  0  0  0  0  0  0  0  0  0  0  0
   17.7696   13.9773   -1.7134 H   0  0  0  0  0  0  0  0  0  0  0  0
   16.7209   16.9881   -3.2522 H   0  0  0  0  0  0  0  0  0  0  0  0
   17.7137   17.7697   -5.3687 H   0  0  0  0  0  0  0  0  0  0  0  0
   19.4705   16.4465   -6.4544 H   0  0  0  0  0  0  0  0  0  0  0  0
   20.2406   14.3515   -5.4404 H   0  0  0  0  0  0  0  0  0  0  0  0
   19.2538   13.5721   -3.3320 H   0  0  0  0  0  0  0  0  0  0  0  0
  1  2  1  0
  1  8  1  0
  2  3  2  0
  2  7  1  0
  3  4  1  0
  3  9  1  0
  4  5  2  0
  4 10  1  0
  5  6  1  0
  5 11  1  0
  6  7  2  0
  6 12  1  0
  7 13  1  0
M  END
> <intraLJ>
11.192    

> <intraEL>
-0.882    

> <intraDihe>
0.000     

> <interLJ>
0.000     

> <interEJ>
0.000     

> <gridLJ>
-2.010    

> <gridEL>
0.000     

> <totalE>
8.300     

> <LGFE>
-2.010  

> <LE>
-0.287  

> <SMILES>
Oc1ccccc1

> <atom.dprop.GFE>
-0.39 -0.23 -0.21 -0.24 -0.31 -0.33 -0.3 0 0 0 0 0 0

> <atom.prop.CLASS>
MEOO BENC BENC BENC BENC BENC BENC NCLA NCLA NCLA NCLA NCLA NCLA

$$$$
