62_2
     RDKit          3D

 11 11  0  0  0  0  0  0  0  0999 V2000
   21.1787    9.4979  -18.2036 O   0  0  0  0  0  0  0  0  0  0  0  0
   22.0153   10.4332  -18.0674 C   0  0  0  0  0  0  0  0  0  0  0  0
   23.2402   10.1818  -17.8954 O   0  0  0  0  0  0  0  0  0  0  0  0
   21.5606   11.8234  -18.1088 C   0  0  0  0  0  0  0  0  0  0  0  0
   22.3779   12.9286  -18.4458 C   0  0  0  0  0  0  0  0  0  0  0  0
   21.7178   14.1218  -18.4107 C   0  0  0  0  0  0  0  0  0  0  0  0
   20.0617   13.9280  -17.9608 S   0  0  0  0  0  0  0  0  0  0  0  0
   20.2748   12.2204  -17.8206 C   0  0  0  0  0  0  0  0  0  0  0  0
   23.4034   12.8236  -18.6990 H   0  0  0  0  0  0  0  0  0  0  0  0
   22.1149   15.0796  -18.6222 H   0  0  0  0  0  0  0  0  0  0  0  0
   19.4729   11.5856  -17.5413 H   0  0  0  0  0  0  0  0  0  0  0  0
  1  2  2  0
  2  3  1  0
  2  4  1  0
  4  5  1  0
  4  8  2  0
  5  6  2  0
  5  9  1  0
  6  7  1  0
  6 10  1  0
  7  8  1  0
  8 11  1  0
M  CHG  1   3  -1
M  END
> <intraLJ>
1.241     

> <intraEL>
5.022     

> <intraDihe>
2.524     

> <interLJ>
0.000     

> <interEJ>
0.000     

> <gridLJ>
-3.970    

> <gridEL>
0.000     

> <totalE>
4.818     

> <LGFE>
-3.970  

> <LE>
-0.496  

> <SMILES>
O=C([O-])c1ccsc1

> <atom.dprop.GFE>
0 -3.1 0 -0.18 -0.14 -0.11 -0.32 -0.13 0 0 0

> <atom.prop.CLASS>
NCLA ACEC NCLA GEHC GEHC GEHC PRPC GEHC NCLA NCLA NCLA

$$$$
62_2
     RDKit          3D

 11 11  0  0  0  0  0  0  0  0999 V2000
  -16.1028    7.3341    0.2257 O   0  0  0  0  0  0  0  0  0  0  0  0
  -16.3387    8.0772   -0.7670 C   0  0  0  0  0  0  0  0  0  0  0  0
  -16.3529    9.3332   -0.6425 O   0  0  0  0  0  0  0  0  0  0  0  0
  -16.5990    7.4766   -2.0756 C   0  0  0  0  0  0  0  0  0  0  0  0
  -17.0798    6.1607   -2.2767 C   0  0  0  0  0  0  0  0  0  0  0  0
  -17.2394    5.8369   -3.5922 C   0  0  0  0  0  0  0  0  0  0  0  0
  -16.8031    7.1434   -4.6340 S   0  0  0  0  0  0  0  0  0  0  0  0
  -16.4030    8.1269   -3.2726 C   0  0  0  0  0  0  0  0  0  0  0  0
  -17.2910    5.5013   -1.4722 H   0  0  0  0  0  0  0  0  0  0  0  0
  -17.5835    4.9178   -3.9881 H   0  0  0  0  0  0  0  0  0  0  0  0
  -16.0495    9.1191   -3.3937 H   0  0  0  0  0  0  0  0  0  0  0  0
  1  2  2  0
  2  3  1  0
  2  4  1  0
  4  5  1  0
  4  8  2  0
  5  6  2  0
  5  9  1  0
  6  7  1  0
  6 10  1  0
  7  8  1  0
  8 11  1  0
M  CHG  1   3  -1
M  END
> <intraLJ>
1.240     

> <intraEL>
5.022     

> <intraDihe>
2.525     

> <interLJ>
0.000     

> <interEJ>
0.000     

> <gridLJ>
-3.598    

> <gridEL>
0.000     

> <totalE>
5.190     

> <LGFE>
-3.598  

> <LE>
-0.450  

> <SMILES>
O=C([O-])c1ccsc1

> <atom.dprop.GFE>
0 -1.7 0 -0.42 -0.47 -0.14 -0.37 -0.46 0 0 0

> <atom.prop.CLASS>
NCLA ACEC NCLA GEHC GEHC GEHC PRPC GEHC NCLA NCLA NCLA

$$$$
62_2
     RDKit          3D

 11 11  0  0  0  0  0  0  0  0999 V2000
   22.3708    5.3861  -31.8587 O   0  0  0  0  0  0  0  0  0  0  0  0
   23.2761    4.8798  -31.1393 C   0  0  0  0  0  0  0  0  0  0  0  0
   24.2552    5.5756  -30.7516 O   0  0  0  0  0  0  0  0  0  0  0  0
   23.1899    3.4716  -30.7513 C   0  0  0  0  0  0  0  0  0  0  0  0
   22.4586    2.4854  -31.4551 C   0  0  0  0  0  0  0  0  0  0  0  0
   22.5357    1.2464  -30.8895 C   0  0  0  0  0  0  0  0  0  0  0  0
   23.5142    1.2486  -29.4664 S   0  0  0  0  0  0  0  0  0  0  0  0
   23.8142    2.9393  -29.6462 C   0  0  0  0  0  0  0  0  0  0  0  0
   21.9082    2.7035  -32.3361 H   0  0  0  0  0  0  0  0  0  0  0  0
   22.0768    0.3566  -31.2320 H   0  0  0  0  0  0  0  0  0  0  0  0
   24.4211    3.4683  -28.9564 H   0  0  0  0  0  0  0  0  0  0  0  0
  1  2  2  0
  2  3  1  0
  2  4  1  0
  4  5  1  0
  4  8  2  0
  5  6  2  0
  5  9  1  0
  6  7  1  0
  6 10  1  0
  7  8  1  0
  8 11  1  0
M  CHG  1   3  -1
M  END
> <intraLJ>
1.259     

> <intraEL>
5.018     

> <intraDihe>
2.511     

> <interLJ>
0.000     

> <interEJ>
0.000     

> <gridLJ>
-2.681    

> <gridEL>
0.000     

> <totalE>
6.108     

> <LGFE>
-2.681  

> <LE>
-0.335  

> <SMILES>
O=C([O-])c1ccsc1

> <atom.dprop.GFE>
0 -1.7 0 -0.18 -0.26 -0.16 -0.3 -0.1 0 0 0

> <atom.prop.CLASS>
NCLA ACEC NCLA GEHC GEHC GEHC PRPC GEHC NCLA NCLA NCLA

$$$$
62_2
     RDKit          3D

 11 11  0  0  0  0  0  0  0  0999 V2000
  -10.2249   -9.5050  -12.8663 O   0  0  0  0  0  0  0  0  0  0  0  0
   -9.9561   -8.7236  -13.8205 C   0  0  0  0  0  0  0  0  0  0  0  0
  -10.4946   -8.8788  -14.9514 O   0  0  0  0  0  0  0  0  0  0  0  0
   -9.0099   -7.6267  -13.6137 C   0  0  0  0  0  0  0  0  0  0  0  0
   -8.9850   -6.4310  -14.3704 C   0  0  0  0  0  0  0  0  0  0  0  0
   -8.0057   -5.5642  -13.9826 C   0  0  0  0  0  0  0  0  0  0  0  0
   -7.0763   -6.1897  -12.6682 S   0  0  0  0  0  0  0  0  0  0  0  0
   -8.0252   -7.6320  -12.6522 C   0  0  0  0  0  0  0  0  0  0  0  0
   -9.6683   -6.2412  -15.1602 H   0  0  0  0  0  0  0  0  0  0  0  0
   -7.7918   -4.6135  -14.3953 H   0  0  0  0  0  0  0  0  0  0  0  0
   -7.8345   -8.4101  -11.9579 H   0  0  0  0  0  0  0  0  0  0  0  0
  1  2  2  0
  2  3  1  0
  2  4  1  0
  4  5  1  0
  4  8  2  0
  5  6  2  0
  5  9  1  0
  6  7  1  0
  6 10  1  0
  7  8  1  0
  8 11  1  0
M  CHG  1   3  -1
M  END
> <intraLJ>
1.204     

> <intraEL>
5.031     

> <intraDihe>
2.554     

> <interLJ>
0.000     

> <interEJ>
0.000     

> <gridLJ>
-2.650    

> <gridEL>
0.000     

> <totalE>
6.139     

> <LGFE>
-2.650  

> <LE>
-0.331  

> <SMILES>
O=C([O-])c1ccsc1

> <atom.dprop.GFE>
0 -2.1 0 -0.083 -0.052 -0.066 -0.23 -0.12 0 0 0

> <atom.prop.CLASS>
NCLA ACEC NCLA GEHC GEHC GEHC PRPC GEHC NCLA NCLA NCLA

$$$$
62_2
     RDKit          3D

 11 11  0  0  0  0  0  0  0  0999 V2000
   20.3229   -0.5416  -45.4973 O   0  0  0  0  0  0  0  0  0  0  0  0
   21.0666    0.4727  -45.6050 C   0  0  0  0  0  0  0  0  0  0  0  0
   21.8382    0.8085  -44.6642 O   0  0  0  0  0  0  0  0  0  0  0  0
   21.0335    1.2678  -46.8329 C   0  0  0  0  0  0  0  0  0  0  0  0
   19.9398    1.3200  -47.7296 C   0  0  0  0  0  0  0  0  0  0  0  0
   20.1564    2.1346  -48.8022 C   0  0  0  0  0  0  0  0  0  0  0  0
   21.7184    2.8693  -48.7471 S   0  0  0  0  0  0  0  0  0  0  0  0
   22.0720    2.0624  -47.2623 C   0  0  0  0  0  0  0  0  0  0  0  0
   19.0444    0.7728  -47.5698 H   0  0  0  0  0  0  0  0  0  0  0  0
   19.4906    2.3327  -49.6004 H   0  0  0  0  0  0  0  0  0  0  0  0
   23.0012    2.1959  -46.7696 H   0  0  0  0  0  0  0  0  0  0  0  0
  1  2  2  0
  2  3  1  0
  2  4  1  0
  4  5  1  0
  4  8  2  0
  5  6  2  0
  5  9  1  0
  6  7  1  0
  6 10  1  0
  7  8  1  0
  8 11  1  0
M  CHG  1   3  -1
M  END
> <intraLJ>
1.236     

> <intraEL>
5.023     

> <intraDihe>
2.529     

> <interLJ>
0.000     

> <interEJ>
0.000     

> <gridLJ>
-2.628    

> <gridEL>
0.000     

> <totalE>
6.160     

> <LGFE>
-2.628  

> <LE>
-0.329  

> <SMILES>
O=C([O-])c1ccsc1

> <atom.dprop.GFE>
0 -2.2 0 0.0027 -0.063 -0.13 -0.27 0.018 0 0 0

> <atom.prop.CLASS>
NCLA ACEC NCLA GEHC GEHC GEHC PRPC GEHC NCLA NCLA NCLA

$$$$
62_2
     RDKit          3D

 11 11  0  0  0  0  0  0  0  0999 V2000
  -12.5667    6.0800    8.0905 O   0  0  0  0  0  0  0  0  0  0  0  0
  -13.7913    6.3155    8.2866 C   0  0  0  0  0  0  0  0  0  0  0  0
  -14.1533    7.1925    9.1190 O   0  0  0  0  0  0  0  0  0  0  0  0
  -14.8017    5.5637    7.5416 C   0  0  0  0  0  0  0  0  0  0  0  0
  -14.5963    4.2846    6.9717 C   0  0  0  0  0  0  0  0  0  0  0  0
  -15.6943    3.7960    6.3263 C   0  0  0  0  0  0  0  0  0  0  0  0
  -17.0245    4.8952    6.3970 S   0  0  0  0  0  0  0  0  0  0  0  0
  -16.0790    6.0184    7.3054 C   0  0  0  0  0  0  0  0  0  0  0  0
  -13.6721    3.7680    7.0472 H   0  0  0  0  0  0  0  0  0  0  0  0
  -15.7826    2.8676    5.8262 H   0  0  0  0  0  0  0  0  0  0  0  0
  -16.4813    6.9453    7.6264 H   0  0  0  0  0  0  0  0  0  0  0  0
  1  2  2  0
  2  3  1  0
  2  4  1  0
  4  5  1  0
  4  8  2  0
  5  6  2  0
  5  9  1  0
  6  7  1  0
  6 10  1  0
  7  8  1  0
  8 11  1  0
M  CHG  1   3  -1
M  END
> <intraLJ>
1.238     

> <intraEL>
5.023     

> <intraDihe>
2.527     

> <interLJ>
0.000     

> <interEJ>
0.000     

> <gridLJ>
-2.512    

> <gridEL>
0.000     

> <totalE>
6.276     

> <LGFE>
-2.512  

> <LE>
-0.314  

> <SMILES>
O=C([O-])c1ccsc1

> <atom.dprop.GFE>
0 -1.3 0 -0.086 -0.23 -0.21 -0.58 -0.14 0 0 0

> <atom.prop.CLASS>
NCLA ACEC NCLA GEHC GEHC GEHC PRPC GEHC NCLA NCLA NCLA

$$$$
62_2
     RDKit          3D

 11 11  0  0  0  0  0  0  0  0999 V2000
    8.7429  -10.8810  -29.2443 O   0  0  0  0  0  0  0  0  0  0  0  0
    9.7867  -11.5347  -28.9678 C   0  0  0  0  0  0  0  0  0  0  0  0
    9.8478  -12.7755  -29.1914 O   0  0  0  0  0  0  0  0  0  0  0  0
   10.9378  -10.8474  -28.3816 C   0  0  0  0  0  0  0  0  0  0  0  0
   11.9362  -11.4731  -27.5976 C   0  0  0  0  0  0  0  0  0  0  0  0
   12.9044  -10.6144  -27.1664 C   0  0  0  0  0  0  0  0  0  0  0  0
   12.6221   -9.0002  -27.7115 S   0  0  0  0  0  0  0  0  0  0  0  0
   11.1837   -9.5008  -28.5247 C   0  0  0  0  0  0  0  0  0  0  0  0
   11.9197  -12.5108  -27.3749 H   0  0  0  0  0  0  0  0  0  0  0  0
   13.7475  -10.8471  -26.5707 H   0  0  0  0  0  0  0  0  0  0  0  0
   10.5867   -8.8109  -29.0647 H   0  0  0  0  0  0  0  0  0  0  0  0
  1  2  2  0
  2  3  1  0
  2  4  1  0
  4  5  1  0
  4  8  2  0
  5  6  2  0
  5  9  1  0
  6  7  1  0
  6 10  1  0
  7  8  1  0
  8 11  1  0
M  CHG  1   3  -1
M  END
> <intraLJ>
1.230     

> <intraEL>
5.025     

> <intraDihe>
2.533     

> <interLJ>
0.000     

> <interEJ>
0.000     

> <gridLJ>
-2.458    

> <gridEL>
0.000     

> <totalE>
6.331     

> <LGFE>
-2.458  

> <LE>
-0.307  

> <SMILES>
O=C([O-])c1ccsc1

> <atom.dprop.GFE>
0 -1.9 0 -0.022 -0.0083 -0.038 -0.39 -0.13 0 0 0

> <atom.prop.CLASS>
NCLA ACEC NCLA GEHC GEHC GEHC PRPC GEHC NCLA NCLA NCLA

$$$$
62_2
     RDKit          3D

 11 11  0  0  0  0  0  0  0  0999 V2000
   -2.4427   18.2645   -3.3764 O   0  0  0  0  0  0  0  0  0  0  0  0
   -2.9920   17.1607   -3.6471 C   0  0  0  0  0  0  0  0  0  0  0  0
   -3.4921   16.9525   -4.7872 O   0  0  0  0  0  0  0  0  0  0  0  0
   -3.0502   16.1117   -2.6287 C   0  0  0  0  0  0  0  0  0  0  0  0
   -4.0053   15.0676   -2.6013 C   0  0  0  0  0  0  0  0  0  0  0  0
   -3.8477   14.2160   -1.5474 C   0  0  0  0  0  0  0  0  0  0  0  0
   -2.5141   14.6691   -0.5479 S   0  0  0  0  0  0  0  0  0  0  0  0
   -2.1763   16.0193   -1.5695 C   0  0  0  0  0  0  0  0  0  0  0  0
   -4.7648   14.9698   -3.3363 H   0  0  0  0  0  0  0  0  0  0  0  0
   -4.4356   13.3669   -1.3169 H   0  0  0  0  0  0  0  0  0  0  0  0
   -1.3714   16.6783   -1.3646 H   0  0  0  0  0  0  0  0  0  0  0  0
  1  2  2  0
  2  3  1  0
  2  4  1  0
  4  5  1  0
  4  8  2  0
  5  6  2  0
  5  9  1  0
  6  7  1  0
  6 10  1  0
  7  8  1  0
  8 11  1  0
M  CHG  1   3  -1
M  END
> <intraLJ>
1.237     

> <intraEL>
5.023     

> <intraDihe>
2.528     

> <interLJ>
0.000     

> <interEJ>
0.000     

> <gridLJ>
-2.457    

> <gridEL>
0.000     

> <totalE>
6.331     

> <LGFE>
-2.457  

> <LE>
-0.307  

> <SMILES>
O=C([O-])c1ccsc1

> <atom.dprop.GFE>
0 -0.92 0 -0.14 -0.2 -0.25 -0.73 -0.22 0 0 0

> <atom.prop.CLASS>
NCLA ACEC NCLA GEHC GEHC GEHC PRPC GEHC NCLA NCLA NCLA

$$$$
62_2
     RDKit          3D

 11 11  0  0  0  0  0  0  0  0999 V2000
    2.2434  -11.9776  -42.1313 O   0  0  0  0  0  0  0  0  0  0  0  0
    2.6327  -10.8917  -42.6438 C   0  0  0  0  0  0  0  0  0  0  0  0
    3.8018  -10.7804  -43.1064 O   0  0  0  0  0  0  0  0  0  0  0  0
    1.7196   -9.7499  -42.7018 C   0  0  0  0  0  0  0  0  0  0  0  0
    0.6136   -9.5582  -41.8397 C   0  0  0  0  0  0  0  0  0  0  0  0
   -0.0837   -8.4147  -42.0982 C   0  0  0  0  0  0  0  0  0  0  0  0
    0.5977   -7.5294  -43.4153 S   0  0  0  0  0  0  0  0  0  0  0  0
    1.8307   -8.7222  -43.6104 C   0  0  0  0  0  0  0  0  0  0  0  0
    0.3633  -10.2464  -41.0713 H   0  0  0  0  0  0  0  0  0  0  0  0
   -0.9419   -8.0596  -41.5912 H   0  0  0  0  0  0  0  0  0  0  0  0
    2.5731   -8.6303  -44.3617 H   0  0  0  0  0  0  0  0  0  0  0  0
  1  2  2  0
  2  3  1  0
  2  4  1  0
  4  5  1  0
  4  8  2  0
  5  6  2  0
  5  9  1  0
  6  7  1  0
  6 10  1  0
  7  8  1  0
  8 11  1  0
M  CHG  1   3  -1
M  END
> <intraLJ>
1.238     

> <intraEL>
5.023     

> <intraDihe>
2.527     

> <interLJ>
0.000     

> <interEJ>
0.000     

> <gridLJ>
-2.423    

> <gridEL>
0.000     

> <totalE>
6.365     

> <LGFE>
-2.423  

> <LE>
-0.303  

> <SMILES>
O=C([O-])c1ccsc1

> <atom.dprop.GFE>
0 -2 0 -0.025 -0.0083 -0.025 -0.29 -0.035 0 0 0

> <atom.prop.CLASS>
NCLA ACEC NCLA GEHC GEHC GEHC PRPC GEHC NCLA NCLA NCLA

$$$$
62_2
     RDKit          3D

 11 11  0  0  0  0  0  0  0  0999 V2000
   17.9820    0.8721  -48.6082 O   0  0  0  0  0  0  0  0  0  0  0  0
   17.2411    1.8086  -49.0173 C   0  0  0  0  0  0  0  0  0  0  0  0
   16.0146    1.6094  -49.2395 O   0  0  0  0  0  0  0  0  0  0  0  0
   17.8097    3.1389  -49.2367 C   0  0  0  0  0  0  0  0  0  0  0  0
   17.0676    4.3440  -49.2255 C   0  0  0  0  0  0  0  0  0  0  0  0
   17.8291    5.4518  -49.4574 C   0  0  0  0  0  0  0  0  0  0  0  0
   19.4916    5.0510  -49.6981 S   0  0  0  0  0  0  0  0  0  0  0  0
   19.1432    3.3737  -49.4832 C   0  0  0  0  0  0  0  0  0  0  0  0
   16.0207    4.3677  -49.0523 H   0  0  0  0  0  0  0  0  0  0  0  0
   17.5013    6.4572  -49.4970 H   0  0  0  0  0  0  0  0  0  0  0  0
   19.9061    2.6399  -49.5420 H   0  0  0  0  0  0  0  0  0  0  0  0
  1  2  2  0
  2  3  1  0
  2  4  1  0
  4  5  1  0
  4  8  2  0
  5  6  2  0
  5  9  1  0
  6  7  1  0
  6 10  1  0
  7  8  1  0
  8 11  1  0
M  CHG  1   3  -1
M  END
> <intraLJ>
1.251     

> <intraEL>
5.020     

> <intraDihe>
2.517     

> <interLJ>
0.000     

> <interEJ>
0.000     

> <gridLJ>
-2.355    

> <gridEL>
0.000     

> <totalE>
6.433     

> <LGFE>
-2.355  

> <LE>
-0.294  

> <SMILES>
O=C([O-])c1ccsc1

> <atom.dprop.GFE>
0 -1.3 0 -0.15 -0.18 -0.13 -0.39 -0.22 0 0 0

> <atom.prop.CLASS>
NCLA ACEC NCLA GEHC GEHC GEHC PRPC GEHC NCLA NCLA NCLA

$$$$
62_2
     RDKit          3D

 11 11  0  0  0  0  0  0  0  0999 V2000
  -17.4772    7.3108   -1.0228 O   0  0  0  0  0  0  0  0  0  0  0  0
  -16.3494    7.6538   -1.4745 C   0  0  0  0  0  0  0  0  0  0  0  0
  -15.9108    7.1634   -2.5516 O   0  0  0  0  0  0  0  0  0  0  0  0
  -15.5420    8.6294   -0.7416 C   0  0  0  0  0  0  0  0  0  0  0  0
  -16.0591    9.5818    0.1686 C   0  0  0  0  0  0  0  0  0  0  0  0
  -15.1007   10.3794    0.7217 C   0  0  0  0  0  0  0  0  0  0  0  0
  -13.5224    9.9859    0.1412 S   0  0  0  0  0  0  0  0  0  0  0  0
  -14.1745    8.7357   -0.8551 C   0  0  0  0  0  0  0  0  0  0  0  0
  -17.0947    9.6565    0.3892 H   0  0  0  0  0  0  0  0  0  0  0  0
  -15.2428   11.1583    1.4238 H   0  0  0  0  0  0  0  0  0  0  0  0
  -13.5506    8.1388   -1.4704 H   0  0  0  0  0  0  0  0  0  0  0  0
  1  2  2  0
  2  3  1  0
  2  4  1  0
  4  5  1  0
  4  8  2  0
  5  6  2  0
  5  9  1  0
  6  7  1  0
  6 10  1  0
  7  8  1  0
  8 11  1  0
M  CHG  1   3  -1
M  END
> <intraLJ>
1.258     

> <intraEL>
5.019     

> <intraDihe>
2.512     

> <interLJ>
0.000     

> <interEJ>
0.000     

> <gridLJ>
-2.318    

> <gridEL>
0.000     

> <totalE>
6.470     

> <LGFE>
-2.318  

> <LE>
-0.290  

> <SMILES>
O=C([O-])c1ccsc1

> <atom.dprop.GFE>
0 -1.7 0 -0.38 -0.095 -0.1 0.1 -0.11 0 0 0

> <atom.prop.CLASS>
NCLA ACEC NCLA GEHC GEHC GEHC PRPC GEHC NCLA NCLA NCLA

$$$$
62_2
     RDKit          3D

 11 11  0  0  0  0  0  0  0  0999 V2000
    4.1241   16.2260   -8.6210 O   0  0  0  0  0  0  0  0  0  0  0  0
    5.1099   16.1084   -9.4006 C   0  0  0  0  0  0  0  0  0  0  0  0
    6.0988   15.3904   -9.0848 O   0  0  0  0  0  0  0  0  0  0  0  0
    5.1065   16.8121  -10.6835 C   0  0  0  0  0  0  0  0  0  0  0  0
    6.2681   17.1780  -11.4045 C   0  0  0  0  0  0  0  0  0  0  0  0
    5.9985   17.8272  -12.5736 C   0  0  0  0  0  0  0  0  0  0  0  0
    4.3007   18.0118  -12.8304 S   0  0  0  0  0  0  0  0  0  0  0  0
    3.9635   17.2043  -11.3421 C   0  0  0  0  0  0  0  0  0  0  0  0
    7.2473   16.9617  -11.0567 H   0  0  0  0  0  0  0  0  0  0  0  0
    6.6977   18.1957  -13.2773 H   0  0  0  0  0  0  0  0  0  0  0  0
    2.9680   17.0487  -11.0121 H   0  0  0  0  0  0  0  0  0  0  0  0
  1  2  2  0
  2  3  1  0
  2  4  1  0
  4  5  1  0
  4  8  2  0
  5  6  2  0
  5  9  1  0
  6  7  1  0
  6 10  1  0
  7  8  1  0
  8 11  1  0
M  CHG  1   3  -1
M  END
> <intraLJ>
1.213     

> <intraEL>
5.029     

> <intraDihe>
2.547     

> <interLJ>
0.000     

> <interEJ>
0.000     

> <gridLJ>
-2.191    

> <gridEL>
0.000     

> <totalE>
6.598     

> <LGFE>
-2.191  

> <LE>
-0.274  

> <SMILES>
O=C([O-])c1ccsc1

> <atom.dprop.GFE>
0 -1.8 0 -0.044 -0.09 -0.083 -0.14 -0.025 0 0 0

> <atom.prop.CLASS>
NCLA ACEC NCLA GEHC GEHC GEHC PRPC GEHC NCLA NCLA NCLA

$$$$
62_2
     RDKit          3D

 11 11  0  0  0  0  0  0  0  0999 V2000
  -13.3426   -9.3331  -15.4003 O   0  0  0  0  0  0  0  0  0  0  0  0
  -13.9213  -10.4347  -15.6124 C   0  0  0  0  0  0  0  0  0  0  0  0
  -13.9092  -11.3471  -14.7403 O   0  0  0  0  0  0  0  0  0  0  0  0
  -14.6129  -10.6566  -16.8826 C   0  0  0  0  0  0  0  0  0  0  0  0
  -14.3205   -9.9762  -18.0887 C   0  0  0  0  0  0  0  0  0  0  0  0
  -15.1077  -10.3622  -19.1337 C   0  0  0  0  0  0  0  0  0  0  0  0
  -16.2404  -11.5808  -18.6701 S   0  0  0  0  0  0  0  0  0  0  0  0
  -15.6379  -11.5593  -17.0523 C   0  0  0  0  0  0  0  0  0  0  0  0
  -13.5596   -9.2394  -18.1580 H   0  0  0  0  0  0  0  0  0  0  0  0
  -15.0769   -9.9987  -20.1270 H   0  0  0  0  0  0  0  0  0  0  0  0
  -16.0434  -12.1917  -16.3042 H   0  0  0  0  0  0  0  0  0  0  0  0
  1  2  2  0
  2  3  1  0
  2  4  1  0
  4  5  1  0
  4  8  2  0
  5  6  2  0
  5  9  1  0
  6  7  1  0
  6 10  1  0
  7  8  1  0
  8 11  1  0
M  CHG  1   3  -1
M  END
> <intraLJ>
1.232     

> <intraEL>
5.024     

> <intraDihe>
2.532     

> <interLJ>
0.000     

> <interEJ>
0.000     

> <gridLJ>
-2.083    

> <gridEL>
0.000     

> <totalE>
6.704     

> <LGFE>
-2.083  

> <LE>
-0.260  

> <SMILES>
O=C([O-])c1ccsc1

> <atom.dprop.GFE>
0 -1.9 0 0.068 -0.022 -0.046 -0.21 0.026 0 0 0

> <atom.prop.CLASS>
NCLA ACEC NCLA GEHC GEHC GEHC PRPC GEHC NCLA NCLA NCLA

$$$$
