75
     RDKit          3D

 11 11  0  0  0  0  0  0  0  0999 V2000
  -15.1379    6.1726   -0.9128 O   0  0  0  0  0  0  0  0  0  0  0  0
  -15.9842    7.1523   -1.4918 S   0  0  0  0  0  0  0  0  0  0  0  0
  -17.0373    7.7247   -0.7351 O   0  0  0  0  0  0  0  0  0  0  0  0
  -16.5762    6.6881   -3.0501 C   0  0  0  0  0  0  0  0  0  0  0  0
  -15.8553    8.0243   -3.6042 C   0  0  0  0  0  0  0  0  0  0  0  0
  -15.1119    8.2681   -2.2422 N   0  0  0  0  0  0  0  0  0  0  0  0
  -17.6362    6.7370   -3.2612 H   0  0  0  0  0  0  0  0  0  0  0  0
  -16.1585    5.8129   -3.5310 H   0  0  0  0  0  0  0  0  0  0  0  0
  -16.5659    8.8089   -3.8282 H   0  0  0  0  0  0  0  0  0  0  0  0
  -15.1808    7.8304   -4.4269 H   0  0  0  0  0  0  0  0  0  0  0  0
  -14.1160    8.0914   -2.3417 H   0  0  0  0  0  0  0  0  0  0  0  0
  1  2  2  0
  2  3  2  0
  2  4  1  0
  2  6  1  0
  4  5  1  0
  4  7  1  0
  4  8  1  0
  5  6  1  0
  5  9  1  0
  5 10  1  0
  6 11  1  0
M  END
> <intraLJ>
-0.439    

> <intraEL>
-3.883    

> <intraDihe>
14.792    

> <interLJ>
0.000     

> <interEJ>
0.000     

> <gridLJ>
-5.964    

> <gridEL>
0.000     

> <totalE>
4.506     

> <LGFE>
-5.964  

> <LE>
-0.994  

> <SMILES>
O=S1(=O)CCN1

> <atom.dprop.GFE>
-2 0 -1.5 -0.59 -0.46 -1.4 0 0 0 0 0

> <atom.prop.CLASS>
GENA NCLA GENA PRPC PRPC GEND NCLA NCLA NCLA NCLA NCLA

$$$$
75
     RDKit          3D

 11 11  0  0  0  0  0  0  0  0999 V2000
   -0.0484   -1.8913   -4.6723 O   0  0  0  0  0  0  0  0  0  0  0  0
    0.8111   -2.7623   -5.3892 S   0  0  0  0  0  0  0  0  0  0  0  0
    1.3546   -2.3636   -6.6362 O   0  0  0  0  0  0  0  0  0  0  0  0
    0.1790   -4.3679   -5.5192 C   0  0  0  0  0  0  0  0  0  0  0  0
    1.5211   -4.8438   -4.7547 C   0  0  0  0  0  0  0  0  0  0  0  0
    1.9309   -3.3662   -4.4144 N   0  0  0  0  0  0  0  0  0  0  0  0
    0.1254   -4.8501   -6.4862 H   0  0  0  0  0  0  0  0  0  0  0  0
   -0.6948   -4.6366   -4.9396 H   0  0  0  0  0  0  0  0  0  0  0  0
    2.2257   -5.3194   -5.4240 H   0  0  0  0  0  0  0  0  0  0  0  0
    1.3180   -5.4408   -3.8762 H   0  0  0  0  0  0  0  0  0  0  0  0
    1.8279   -3.1866   -3.4193 H   0  0  0  0  0  0  0  0  0  0  0  0
  1  2  2  0
  2  3  2  0
  2  4  1  0
  2  6  1  0
  4  5  1  0
  4  7  1  0
  4  8  1  0
  5  6  1  0
  5  9  1  0
  5 10  1  0
  6 11  1  0
M  END
> <intraLJ>
-0.439    

> <intraEL>
-3.883    

> <intraDihe>
14.792    

> <interLJ>
0.000     

> <interEJ>
0.000     

> <gridLJ>
-5.333    

> <gridEL>
0.000     

> <totalE>
5.137     

> <LGFE>
-5.333  

> <LE>
-0.889  

> <SMILES>
O=S1(=O)CCN1

> <atom.dprop.GFE>
-1.6 0 -1.8 -0.52 -0.44 -0.97 0 0 0 0 0

> <atom.prop.CLASS>
GENA NCLA GENA PRPC PRPC GEND NCLA NCLA NCLA NCLA NCLA

$$$$
75
     RDKit          3D

 11 11  0  0  0  0  0  0  0  0999 V2000
  -19.4442    7.0599    7.8985 O   0  0  0  0  0  0  0  0  0  0  0  0
  -19.4759    5.7958    7.2564 S   0  0  0  0  0  0  0  0  0  0  0  0
  -20.6073    5.4087    6.4952 O   0  0  0  0  0  0  0  0  0  0  0  0
  -19.0131    4.5005    8.3063 C   0  0  0  0  0  0  0  0  0  0  0  0
  -17.8315    4.2036    7.2444 C   0  0  0  0  0  0  0  0  0  0  0  0
  -18.1062    5.5391    6.4646 N   0  0  0  0  0  0  0  0  0  0  0  0
  -19.6446    3.6266    8.3959 H   0  0  0  0  0  0  0  0  0  0  0  0
  -18.5923    4.7354    9.2757 H   0  0  0  0  0  0  0  0  0  0  0  0
  -18.0349    3.3288    6.6410 H   0  0  0  0  0  0  0  0  0  0  0  0
  -16.8515    4.1724    7.7004 H   0  0  0  0  0  0  0  0  0  0  0  0
  -17.3507    6.2023    6.6140 H   0  0  0  0  0  0  0  0  0  0  0  0
  1  2  2  0
  2  3  2  0
  2  4  1  0
  2  6  1  0
  4  5  1  0
  4  7  1  0
  4  8  1  0
  5  6  1  0
  5  9  1  0
  5 10  1  0
  6 11  1  0
M  END
> <intraLJ>
-0.439    

> <intraEL>
-3.883    

> <intraDihe>
14.792    

> <interLJ>
0.000     

> <interEJ>
0.000     

> <gridLJ>
-4.832    

> <gridEL>
0.000     

> <totalE>
5.638     

> <LGFE>
-4.832  

> <LE>
-0.805  

> <SMILES>
O=S1(=O)CCN1

> <atom.dprop.GFE>
-1.5 0 -1.9 -0.58 -0.49 -0.37 0 0 0 0 0

> <atom.prop.CLASS>
GENA NCLA GENA PRPC PRPC GEND NCLA NCLA NCLA NCLA NCLA

$$$$
75
     RDKit          3D

 11 11  0  0  0  0  0  0  0  0999 V2000
  -21.2357    3.0913   23.4307 O   0  0  0  0  0  0  0  0  0  0  0  0
  -22.0722    2.2197   22.6879 S   0  0  0  0  0  0  0  0  0  0  0  0
  -22.9737    1.3530   23.3553 O   0  0  0  0  0  0  0  0  0  0  0  0
  -21.2093    1.3365   21.4756 C   0  0  0  0  0  0  0  0  0  0  0  0
  -22.2069    2.0314   20.4107 C   0  0  0  0  0  0  0  0  0  0  0  0
  -22.7824    3.0153   21.4914 N   0  0  0  0  0  0  0  0  0  0  0  0
  -21.3116    0.2611   21.4160 H   0  0  0  0  0  0  0  0  0  0  0  0
  -20.1843    1.6083   21.2579 H   0  0  0  0  0  0  0  0  0  0  0  0
  -22.9567    1.3431   20.0440 H   0  0  0  0  0  0  0  0  0  0  0  0
  -21.6846    2.5383   19.6108 H   0  0  0  0  0  0  0  0  0  0  0  0
  -22.4688    3.9654   21.3133 H   0  0  0  0  0  0  0  0  0  0  0  0
  1  2  2  0
  2  3  2  0
  2  4  1  0
  2  6  1  0
  4  5  1  0
  4  7  1  0
  4  8  1  0
  5  6  1  0
  5  9  1  0
  5 10  1  0
  6 11  1  0
M  END
> <intraLJ>
-0.439    

> <intraEL>
-3.883    

> <intraDihe>
14.792    

> <interLJ>
0.000     

> <interEJ>
0.000     

> <gridLJ>
-4.613    

> <gridEL>
0.000     

> <totalE>
5.857     

> <LGFE>
-4.613  

> <LE>
-0.769  

> <SMILES>
O=S1(=O)CCN1

> <atom.dprop.GFE>
-1.7 0 -1.4 -0.24 -0.19 -1.1 0 0 0 0 0

> <atom.prop.CLASS>
GENA NCLA GENA PRPC PRPC GEND NCLA NCLA NCLA NCLA NCLA

$$$$
75
     RDKit          3D

 11 11  0  0  0  0  0  0  0  0999 V2000
  -20.9024   -3.9736   25.2328 O   0  0  0  0  0  0  0  0  0  0  0  0
  -19.7067   -4.6817   24.9496 S   0  0  0  0  0  0  0  0  0  0  0  0
  -19.1402   -4.6375   23.6509 O   0  0  0  0  0  0  0  0  0  0  0  0
  -19.7512   -6.3192   25.5070 C   0  0  0  0  0  0  0  0  0  0  0  0
  -18.4603   -5.9376   26.4016 C   0  0  0  0  0  0  0  0  0  0  0  0
  -18.6134   -4.4061   26.0887 N   0  0  0  0  0  0  0  0  0  0  0  0
  -19.4961   -7.1260   24.8327 H   0  0  0  0  0  0  0  0  0  0  0  0
  -20.5666   -6.6345   26.1454 H   0  0  0  0  0  0  0  0  0  0  0  0
  -17.5457   -6.3485   25.9951 H   0  0  0  0  0  0  0  0  0  0  0  0
  -18.5884   -6.1714   27.4496 H   0  0  0  0  0  0  0  0  0  0  0  0
  -18.9197   -3.9009   26.9157 H   0  0  0  0  0  0  0  0  0  0  0  0
  1  2  2  0
  2  3  2  0
  2  4  1  0
  2  6  1  0
  4  5  1  0
  4  7  1  0
  4  8  1  0
  5  6  1  0
  5  9  1  0
  5 10  1  0
  6 11  1  0
M  END
> <intraLJ>
-0.439    

> <intraEL>
-3.883    

> <intraDihe>
14.792    

> <interLJ>
0.000     

> <interEJ>
0.000     

> <gridLJ>
-4.669    

> <gridEL>
0.000     

> <totalE>
5.801     

> <LGFE>
-4.669  

> <LE>
-0.778  

> <SMILES>
O=S1(=O)CCN1

> <atom.dprop.GFE>
-1.4 0 -1.6 -0.32 -0.26 -1 0 0 0 0 0

> <atom.prop.CLASS>
GENA NCLA GENA PRPC PRPC GEND NCLA NCLA NCLA NCLA NCLA

$$$$
75
     RDKit          3D

 11 11  0  0  0  0  0  0  0  0999 V2000
  -23.0232    2.3022   22.3592 O   0  0  0  0  0  0  0  0  0  0  0  0
  -21.6836    2.0080   22.7199 S   0  0  0  0  0  0  0  0  0  0  0  0
  -21.2253    2.2631   24.0369 O   0  0  0  0  0  0  0  0  0  0  0  0
  -20.5345    2.6168   21.5783 C   0  0  0  0  0  0  0  0  0  0  0  0
  -20.0614    1.0820   21.3969 C   0  0  0  0  0  0  0  0  0  0  0  0
  -21.2828    0.5384   22.2214 N   0  0  0  0  0  0  0  0  0  0  0  0
  -19.6988    3.2131   21.9196 H   0  0  0  0  0  0  0  0  0  0  0  0
  -20.8901    3.0108   20.6349 H   0  0  0  0  0  0  0  0  0  0  0  0
  -19.1172    0.8850   21.8871 H   0  0  0  0  0  0  0  0  0  0  0  0
  -20.0674    0.7571   20.3656 H   0  0  0  0  0  0  0  0  0  0  0  0
  -21.9397    0.0578   21.6128 H   0  0  0  0  0  0  0  0  0  0  0  0
  1  2  2  0
  2  3  2  0
  2  4  1  0
  2  6  1  0
  4  5  1  0
  4  7  1  0
  4  8  1  0
  5  6  1  0
  5  9  1  0
  5 10  1  0
  6 11  1  0
M  END
> <intraLJ>
-0.439    

> <intraEL>
-3.883    

> <intraDihe>
14.792    

> <interLJ>
0.000     

> <interEJ>
0.000     

> <gridLJ>
-4.545    

> <gridEL>
0.000     

> <totalE>
5.925     

> <LGFE>
-4.545  

> <LE>
-0.757  

> <SMILES>
O=S1(=O)CCN1

> <atom.dprop.GFE>
-1.9 0 -1.7 0.034 -0.38 -0.6 0 0 0 0 0

> <atom.prop.CLASS>
GENA NCLA GENA PRPC PRPC GEND NCLA NCLA NCLA NCLA NCLA

$$$$
75
     RDKit          3D

 11 11  0  0  0  0  0  0  0  0999 V2000
    7.5316   -6.7761    1.5211 O   0  0  0  0  0  0  0  0  0  0  0  0
    7.7197   -5.7310    2.4613 S   0  0  0  0  0  0  0  0  0  0  0  0
    8.9038   -4.9522    2.4372 O   0  0  0  0  0  0  0  0  0  0  0  0
    7.3832   -6.2241    4.0854 C   0  0  0  0  0  0  0  0  0  0  0  0
    6.2660   -5.0563    4.0955 C   0  0  0  0  0  0  0  0  0  0  0  0
    6.4052   -4.8182    2.5492 N   0  0  0  0  0  0  0  0  0  0  0  0
    8.1072   -6.0366    4.8672 H   0  0  0  0  0  0  0  0  0  0  0  0
    6.9176   -7.1864    4.2561 H   0  0  0  0  0  0  0  0  0  0  0  0
    6.5799   -4.1957    4.6714 H   0  0  0  0  0  0  0  0  0  0  0  0
    5.2861   -5.4114    4.3836 H   0  0  0  0  0  0  0  0  0  0  0  0
    5.5766   -5.1467    2.0608 H   0  0  0  0  0  0  0  0  0  0  0  0
  1  2  2  0
  2  3  2  0
  2  4  1  0
  2  6  1  0
  4  5  1  0
  4  7  1  0
  4  8  1  0
  5  6  1  0
  5  9  1  0
  5 10  1  0
  6 11  1  0
M  END
> <intraLJ>
-0.439    

> <intraEL>
-3.883    

> <intraDihe>
14.792    

> <interLJ>
0.000     

> <interEJ>
0.000     

> <gridLJ>
-4.570    

> <gridEL>
0.000     

> <totalE>
5.900     

> <LGFE>
-4.570  

> <LE>
-0.762  

> <SMILES>
O=S1(=O)CCN1

> <atom.dprop.GFE>
-1.3 0 -1.2 -0.43 -0.47 -1.1 0 0 0 0 0

> <atom.prop.CLASS>
GENA NCLA GENA PRPC PRPC GEND NCLA NCLA NCLA NCLA NCLA

$$$$
75
     RDKit          3D

 11 11  0  0  0  0  0  0  0  0999 V2000
  -23.4835    4.9686    6.7684 O   0  0  0  0  0  0  0  0  0  0  0  0
  -22.3453    4.8306    5.9337 S   0  0  0  0  0  0  0  0  0  0  0  0
  -21.0666    5.2307    6.3967 O   0  0  0  0  0  0  0  0  0  0  0  0
  -22.6052    5.4523    4.3400 C   0  0  0  0  0  0  0  0  0  0  0  0
  -22.2727    3.9592    3.8184 C   0  0  0  0  0  0  0  0  0  0  0  0
  -22.3125    3.3703    5.2740 N   0  0  0  0  0  0  0  0  0  0  0  0
  -21.8980    6.1495    3.9107 H   0  0  0  0  0  0  0  0  0  0  0  0
  -23.6072    5.7356    4.0440 H   0  0  0  0  0  0  0  0  0  0  0  0
  -21.2874    3.8908    3.3767 H   0  0  0  0  0  0  0  0  0  0  0  0
  -23.0428    3.5547    3.1759 H   0  0  0  0  0  0  0  0  0  0  0  0
  -23.1329    2.7838    5.4003 H   0  0  0  0  0  0  0  0  0  0  0  0
  1  2  2  0
  2  3  2  0
  2  4  1  0
  2  6  1  0
  4  5  1  0
  4  7  1  0
  4  8  1  0
  5  6  1  0
  5  9  1  0
  5 10  1  0
  6 11  1  0
M  END
> <intraLJ>
-0.439    

> <intraEL>
-3.883    

> <intraDihe>
14.792    

> <interLJ>
0.000     

> <interEJ>
0.000     

> <gridLJ>
-4.285    

> <gridEL>
0.000     

> <totalE>
6.184     

> <LGFE>
-4.285  

> <LE>
-0.714  

> <SMILES>
O=S1(=O)CCN1

> <atom.dprop.GFE>
-0.88 0 -1.9 -0.38 -0.51 -0.65 0 0 0 0 0

> <atom.prop.CLASS>
GENA NCLA GENA PRPC PRPC GEND NCLA NCLA NCLA NCLA NCLA

$$$$
75
     RDKit          3D

 11 11  0  0  0  0  0  0  0  0999 V2000
   -6.6129   -7.2256    1.3590 O   0  0  0  0  0  0  0  0  0  0  0  0
   -6.0153   -7.8786    2.4671 S   0  0  0  0  0  0  0  0  0  0  0  0
   -5.1364   -7.1710    3.3252 O   0  0  0  0  0  0  0  0  0  0  0  0
   -5.3116   -9.4023    2.0456 C   0  0  0  0  0  0  0  0  0  0  0  0
   -6.3212  -10.0480    3.1300 C   0  0  0  0  0  0  0  0  0  0  0  0
   -7.1174   -8.7033    3.2880 N   0  0  0  0  0  0  0  0  0  0  0  0
   -4.2908   -9.6220    2.3286 H   0  0  0  0  0  0  0  0  0  0  0  0
   -5.5049   -9.8162    1.0642 H   0  0  0  0  0  0  0  0  0  0  0  0
   -5.8136  -10.3320    4.0422 H   0  0  0  0  0  0  0  0  0  0  0  0
   -6.9208  -10.8509    2.7235 H   0  0  0  0  0  0  0  0  0  0  0  0
   -8.0421   -8.7845    2.8741 H   0  0  0  0  0  0  0  0  0  0  0  0
  1  2  2  0
  2  3  2  0
  2  4  1  0
  2  6  1  0
  4  5  1  0
  4  7  1  0
  4  8  1  0
  5  6  1  0
  5  9  1  0
  5 10  1  0
  6 11  1  0
M  END
> <intraLJ>
-0.439    

> <intraEL>
-3.883    

> <intraDihe>
14.792    

> <interLJ>
0.000     

> <interEJ>
0.000     

> <gridLJ>
-4.138    

> <gridEL>
0.000     

> <totalE>
6.332     

> <LGFE>
-4.138  

> <LE>
-0.690  

> <SMILES>
O=S1(=O)CCN1

> <atom.dprop.GFE>
-1.3 0 -1.3 -0.19 -0.34 -1.1 0 0 0 0 0

> <atom.prop.CLASS>
GENA NCLA GENA PRPC PRPC GEND NCLA NCLA NCLA NCLA NCLA

$$$$
75
     RDKit          3D

 11 11  0  0  0  0  0  0  0  0999 V2000
  -16.0449    4.6890    7.3379 O   0  0  0  0  0  0  0  0  0  0  0  0
  -15.6979    4.8068    5.9679 S   0  0  0  0  0  0  0  0  0  0  0  0
  -15.2027    6.0336    5.4587 O   0  0  0  0  0  0  0  0  0  0  0  0
  -16.9245    4.1941    4.9122 C   0  0  0  0  0  0  0  0  0  0  0  0
  -15.7956    3.1746    4.3661 C   0  0  0  0  0  0  0  0  0  0  0  0
  -14.7954    3.5628    5.5133 N   0  0  0  0  0  0  0  0  0  0  0  0
  -17.2858    4.8030    4.0941 H   0  0  0  0  0  0  0  0  0  0  0  0
  -17.7529    3.6405    5.3355 H   0  0  0  0  0  0  0  0  0  0  0  0
  -15.4271    3.4583    3.3893 H   0  0  0  0  0  0  0  0  0  0  0  0
  -16.1061    2.1395    4.4062 H   0  0  0  0  0  0  0  0  0  0  0  0
  -14.6927    2.7963    6.1728 H   0  0  0  0  0  0  0  0  0  0  0  0
  1  2  2  0
  2  3  2  0
  2  4  1  0
  2  6  1  0
  4  5  1  0
  4  7  1  0
  4  8  1  0
  5  6  1  0
  5  9  1  0
  5 10  1  0
  6 11  1  0
M  END
> <intraLJ>
-0.439    

> <intraEL>
-3.883    

> <intraDihe>
14.792    

> <interLJ>
0.000     

> <interEJ>
0.000     

> <gridLJ>
-4.159    

> <gridEL>
0.000     

> <totalE>
6.311     

> <LGFE>
-4.159  

> <LE>
-0.693  

> <SMILES>
O=S1(=O)CCN1

> <atom.dprop.GFE>
-1.3 0 -1.3 -0.23 -0.52 -0.81 0 0 0 0 0

> <atom.prop.CLASS>
GENA NCLA GENA PRPC PRPC GEND NCLA NCLA NCLA NCLA NCLA

$$$$
75
     RDKit          3D

 11 11  0  0  0  0  0  0  0  0999 V2000
   -4.0455   14.1825    0.2652 O   0  0  0  0  0  0  0  0  0  0  0  0
   -3.1272   14.4943   -0.7696 S   0  0  0  0  0  0  0  0  0  0  0  0
   -2.3432   15.6732   -0.6985 O   0  0  0  0  0  0  0  0  0  0  0  0
   -3.8251   14.3568   -2.3470 C   0  0  0  0  0  0  0  0  0  0  0  0
   -2.6760   13.2596   -2.6434 C   0  0  0  0  0  0  0  0  0  0  0  0
   -2.2423   13.2088   -1.1346 N   0  0  0  0  0  0  0  0  0  0  0  0
   -3.7333   15.1734   -3.0508 H   0  0  0  0  0  0  0  0  0  0  0  0
   -4.8046   13.9074   -2.4504 H   0  0  0  0  0  0  0  0  0  0  0  0
   -1.8935   13.6497   -3.2807 H   0  0  0  0  0  0  0  0  0  0  0  0
   -3.0718   12.3197   -3.0030 H   0  0  0  0  0  0  0  0  0  0  0  0
   -2.5119   12.3234   -0.7147 H   0  0  0  0  0  0  0  0  0  0  0  0
  1  2  2  0
  2  3  2  0
  2  4  1  0
  2  6  1  0
  4  5  1  0
  4  7  1  0
  4  8  1  0
  5  6  1  0
  5  9  1  0
  5 10  1  0
  6 11  1  0
M  END
> <intraLJ>
-0.439    

> <intraEL>
-3.883    

> <intraDihe>
14.792    

> <interLJ>
0.000     

> <interEJ>
0.000     

> <gridLJ>
-4.130    

> <gridEL>
0.000     

> <totalE>
6.340     

> <LGFE>
-4.130  

> <LE>
-0.688  

> <SMILES>
O=S1(=O)CCN1

> <atom.dprop.GFE>
-0.83 0 -1.1 -0.64 -0.6 -0.94 0 0 0 0 0

> <atom.prop.CLASS>
GENA NCLA GENA PRPC PRPC GEND NCLA NCLA NCLA NCLA NCLA

$$$$
75
     RDKit          3D

 11 11  0  0  0  0  0  0  0  0999 V2000
   24.8946    7.6931   -6.6668 O   0  0  0  0  0  0  0  0  0  0  0  0
   24.0249    7.0270   -7.5675 S   0  0  0  0  0  0  0  0  0  0  0  0
   23.7170    5.6559   -7.3818 O   0  0  0  0  0  0  0  0  0  0  0  0
   24.4341    7.3098   -9.2248 C   0  0  0  0  0  0  0  0  0  0  0  0
   22.9473    7.9249   -9.3763 C   0  0  0  0  0  0  0  0  0  0  0  0
   22.7094    7.9060   -7.8238 N   0  0  0  0  0  0  0  0  0  0  0  0
   24.5488    6.4742   -9.9025 H   0  0  0  0  0  0  0  0  0  0  0  0
   25.1746    8.0631   -9.4616 H   0  0  0  0  0  0  0  0  0  0  0  0
   22.2792    7.2543   -9.9003 H   0  0  0  0  0  0  0  0  0  0  0  0
   22.9431    8.9223   -9.7940 H   0  0  0  0  0  0  0  0  0  0  0  0
   22.7015    8.8518   -7.4517 H   0  0  0  0  0  0  0  0  0  0  0  0
  1  2  2  0
  2  3  2  0
  2  4  1  0
  2  6  1  0
  4  5  1  0
  4  7  1  0
  4  8  1  0
  5  6  1  0
  5  9  1  0
  5 10  1  0
  6 11  1  0
M  END
> <intraLJ>
-0.439    

> <intraEL>
-3.883    

> <intraDihe>
14.792    

> <interLJ>
0.000     

> <interEJ>
0.000     

> <gridLJ>
-4.026    

> <gridEL>
0.000     

> <totalE>
6.444     

> <LGFE>
-4.026  

> <LE>
-0.671  

> <SMILES>
O=S1(=O)CCN1

> <atom.dprop.GFE>
-0.94 0 -1.1 -0.41 -0.31 -1.3 0 0 0 0 0

> <atom.prop.CLASS>
GENA NCLA GENA PRPC PRPC GEND NCLA NCLA NCLA NCLA NCLA

$$$$
75
     RDKit          3D

 11 11  0  0  0  0  0  0  0  0999 V2000
   14.9380   17.1159  -27.9789 O   0  0  0  0  0  0  0  0  0  0  0  0
   14.7045   16.2275  -29.0595 S   0  0  0  0  0  0  0  0  0  0  0  0
   15.5850   15.1420  -29.2955 O   0  0  0  0  0  0  0  0  0  0  0  0
   14.3897   17.0526  -30.5475 C   0  0  0  0  0  0  0  0  0  0  0  0
   12.9690   16.2820  -30.5509 C   0  0  0  0  0  0  0  0  0  0  0  0
   13.1692   15.7677  -29.0803 N   0  0  0  0  0  0  0  0  0  0  0  0
   14.9442   16.7892  -31.4384 H   0  0  0  0  0  0  0  0  0  0  0  0
   14.2325   18.1235  -30.5309 H   0  0  0  0  0  0  0  0  0  0  0  0
   12.9455   15.4718  -31.2676 H   0  0  0  0  0  0  0  0  0  0  0  0
   12.1258   16.9509  -30.6553 H   0  0  0  0  0  0  0  0  0  0  0  0
   12.5325   16.2419  -28.4458 H   0  0  0  0  0  0  0  0  0  0  0  0
  1  2  2  0
  2  3  2  0
  2  4  1  0
  2  6  1  0
  4  5  1  0
  4  7  1  0
  4  8  1  0
  5  6  1  0
  5  9  1  0
  5 10  1  0
  6 11  1  0
M  END
> <intraLJ>
-0.439    

> <intraEL>
-3.883    

> <intraDihe>
14.792    

> <interLJ>
0.000     

> <interEJ>
0.000     

> <gridLJ>
-4.031    

> <gridEL>
0.000     

> <totalE>
6.439     

> <LGFE>
-4.031  

> <LE>
-0.672  

> <SMILES>
O=S1(=O)CCN1

> <atom.dprop.GFE>
-0.94 0 -1.1 -0.2 -0.1 -1.7 0 0 0 0 0

> <atom.prop.CLASS>
GENA NCLA GENA PRPC PRPC GEND NCLA NCLA NCLA NCLA NCLA

$$$$
75
     RDKit          3D

 11 11  0  0  0  0  0  0  0  0999 V2000
  -18.9036   -3.6388   26.1621 O   0  0  0  0  0  0  0  0  0  0  0  0
  -18.7577   -3.3778   24.7758 S   0  0  0  0  0  0  0  0  0  0  0  0
  -19.1671   -4.3412   23.8199 O   0  0  0  0  0  0  0  0  0  0  0  0
  -17.1821   -2.7901   24.3681 C   0  0  0  0  0  0  0  0  0  0  0  0
  -17.9350   -1.4775   23.8003 C   0  0  0  0  0  0  0  0  0  0  0  0
  -19.3088   -1.9145   24.4239 N   0  0  0  0  0  0  0  0  0  0  0  0
  -16.6218   -3.2575   23.5692 H   0  0  0  0  0  0  0  0  0  0  0  0
  -16.5024   -2.5144   25.1642 H   0  0  0  0  0  0  0  0  0  0  0  0
  -17.9644   -1.4591   22.7190 H   0  0  0  0  0  0  0  0  0  0  0  0
  -17.5527   -0.5568   24.2192 H   0  0  0  0  0  0  0  0  0  0  0  0
  -19.5563   -1.3103   25.2028 H   0  0  0  0  0  0  0  0  0  0  0  0
  1  2  2  0
  2  3  2  0
  2  4  1  0
  2  6  1  0
  4  5  1  0
  4  7  1  0
  4  8  1  0
  5  6  1  0
  5  9  1  0
  5 10  1  0
  6 11  1  0
M  END
> <intraLJ>
-0.439    

> <intraEL>
-3.883    

> <intraDihe>
14.792    

> <interLJ>
0.000     

> <interEJ>
0.000     

> <gridLJ>
-4.020    

> <gridEL>
0.000     

> <totalE>
6.450     

> <LGFE>
-4.020  

> <LE>
-0.670  

> <SMILES>
O=S1(=O)CCN1

> <atom.dprop.GFE>
-0.78 0 -1.6 -0.2 -0.35 -1.1 0 0 0 0 0

> <atom.prop.CLASS>
GENA NCLA GENA PRPC PRPC GEND NCLA NCLA NCLA NCLA NCLA

$$$$
75
     RDKit          3D

 11 11  0  0  0  0  0  0  0  0999 V2000
   -1.3332    4.0471    9.2376 O   0  0  0  0  0  0  0  0  0  0  0  0
   -2.3516    3.2965    8.5967 S   0  0  0  0  0  0  0  0  0  0  0  0
   -3.0544    3.8417    7.4930 O   0  0  0  0  0  0  0  0  0  0  0  0
   -3.4759    2.6037    9.7148 C   0  0  0  0  0  0  0  0  0  0  0  0
   -3.0383    1.1727    9.1040 C   0  0  0  0  0  0  0  0  0  0  0  0
   -1.8433    1.8048    8.3043 N   0  0  0  0  0  0  0  0  0  0  0  0
   -4.5385    2.7470    9.5702 H   0  0  0  0  0  0  0  0  0  0  0  0
   -3.2535    2.6403   10.7736 H   0  0  0  0  0  0  0  0  0  0  0  0
   -3.7945    0.7593    8.4499 H   0  0  0  0  0  0  0  0  0  0  0  0
   -2.7177    0.4703    9.8611 H   0  0  0  0  0  0  0  0  0  0  0  0
   -0.9542    1.5277    8.7113 H   0  0  0  0  0  0  0  0  0  0  0  0
  1  2  2  0
  2  3  2  0
  2  4  1  0
  2  6  1  0
  4  5  1  0
  4  7  1  0
  4  8  1  0
  5  6  1  0
  5  9  1  0
  5 10  1  0
  6 11  1  0
M  END
> <intraLJ>
-0.439    

> <intraEL>
-3.883    

> <intraDihe>
14.792    

> <interLJ>
0.000     

> <interEJ>
0.000     

> <gridLJ>
-3.880    

> <gridEL>
0.000     

> <totalE>
6.590     

> <LGFE>
-3.880  

> <LE>
-0.647  

> <SMILES>
O=S1(=O)CCN1

> <atom.dprop.GFE>
-1.1 0 -0.91 -0.4 -0.43 -1.1 0 0 0 0 0

> <atom.prop.CLASS>
GENA NCLA GENA PRPC PRPC GEND NCLA NCLA NCLA NCLA NCLA

$$$$
75
     RDKit          3D

 11 11  0  0  0  0  0  0  0  0999 V2000
  -18.0284   -6.0112   -6.7413 O   0  0  0  0  0  0  0  0  0  0  0  0
  -17.0506   -6.6887   -7.5134 S   0  0  0  0  0  0  0  0  0  0  0  0
  -16.1275   -5.9557   -8.3008 O   0  0  0  0  0  0  0  0  0  0  0  0
  -17.7173   -7.9795   -8.4534 C   0  0  0  0  0  0  0  0  0  0  0  0
  -16.7069   -8.9478   -7.6450 C   0  0  0  0  0  0  0  0  0  0  0  0
  -16.3240   -7.8117   -6.6303 N   0  0  0  0  0  0  0  0  0  0  0  0
  -17.5050   -8.0413   -9.5125 H   0  0  0  0  0  0  0  0  0  0  0  0
  -18.7421   -8.2813   -8.2785 H   0  0  0  0  0  0  0  0  0  0  0  0
  -15.8647   -9.2561   -8.2503 H   0  0  0  0  0  0  0  0  0  0  0  0
  -17.2073   -9.7841   -7.1765 H   0  0  0  0  0  0  0  0  0  0  0  0
  -16.7135   -8.0061   -5.7120 H   0  0  0  0  0  0  0  0  0  0  0  0
  1  2  2  0
  2  3  2  0
  2  4  1  0
  2  6  1  0
  4  5  1  0
  4  7  1  0
  4  8  1  0
  5  6  1  0
  5  9  1  0
  5 10  1  0
  6 11  1  0
M  END
> <intraLJ>
-0.439    

> <intraEL>
-3.883    

> <intraDihe>
14.792    

> <interLJ>
0.000     

> <interEJ>
0.000     

> <gridLJ>
-3.889    

> <gridEL>
0.000     

> <totalE>
6.581     

> <LGFE>
-3.889  

> <LE>
-0.648  

> <SMILES>
O=S1(=O)CCN1

> <atom.dprop.GFE>
-1 0 -1.2 -0.04 -0.22 -1.4 0 0 0 0 0

> <atom.prop.CLASS>
GENA NCLA GENA PRPC PRPC GEND NCLA NCLA NCLA NCLA NCLA

$$$$
75
     RDKit          3D

 11 11  0  0  0  0  0  0  0  0999 V2000
   22.5476    4.5917   -6.9790 O   0  0  0  0  0  0  0  0  0  0  0  0
   22.0736    5.9280   -7.0100 S   0  0  0  0  0  0  0  0  0  0  0  0
   22.9775    7.0107   -6.8685 O   0  0  0  0  0  0  0  0  0  0  0  0
   20.7058    6.1764   -5.9797 C   0  0  0  0  0  0  0  0  0  0  0  0
   19.9160    6.6285   -7.3154 C   0  0  0  0  0  0  0  0  0  0  0  0
   21.0792    6.1373   -8.2495 N   0  0  0  0  0  0  0  0  0  0  0  0
   20.7068    6.9920   -5.2687 H   0  0  0  0  0  0  0  0  0  0  0  0
   20.2216    5.3171   -5.5336 H   0  0  0  0  0  0  0  0  0  0  0  0
   19.7770    7.7003   -7.3648 H   0  0  0  0  0  0  0  0  0  0  0  0
   18.9933    6.0848   -7.4651 H   0  0  0  0  0  0  0  0  0  0  0  0
   20.7976    5.3083   -8.7657 H   0  0  0  0  0  0  0  0  0  0  0  0
  1  2  2  0
  2  3  2  0
  2  4  1  0
  2  6  1  0
  4  5  1  0
  4  7  1  0
  4  8  1  0
  5  6  1  0
  5  9  1  0
  5 10  1  0
  6 11  1  0
M  END
> <intraLJ>
-0.439    

> <intraEL>
-3.883    

> <intraDihe>
14.792    

> <interLJ>
0.000     

> <interEJ>
0.000     

> <gridLJ>
-3.907    

> <gridEL>
0.000     

> <totalE>
6.563     

> <LGFE>
-3.907  

> <LE>
-0.651  

> <SMILES>
O=S1(=O)CCN1

> <atom.dprop.GFE>
-0.75 0 -1.2 -0.34 -0.46 -1.1 0 0 0 0 0

> <atom.prop.CLASS>
GENA NCLA GENA PRPC PRPC GEND NCLA NCLA NCLA NCLA NCLA

$$$$
75
     RDKit          3D

 11 11  0  0  0  0  0  0  0  0999 V2000
  -25.1587   -4.1720    3.5127 O   0  0  0  0  0  0  0  0  0  0  0  0
  -25.9834   -5.0049    4.3112 S   0  0  0  0  0  0  0  0  0  0  0  0
  -26.8577   -4.4362    5.2711 O   0  0  0  0  0  0  0  0  0  0  0  0
  -25.1141   -6.3193    5.0259 C   0  0  0  0  0  0  0  0  0  0  0  0
  -26.1387   -7.2873    4.2352 C   0  0  0  0  0  0  0  0  0  0  0  0
  -26.7245   -6.0941    3.3983 N   0  0  0  0  0  0  0  0  0  0  0  0
  -25.1927   -6.5036    6.0891 H   0  0  0  0  0  0  0  0  0  0  0  0
  -24.0979   -6.5121    4.7063 H   0  0  0  0  0  0  0  0  0  0  0  0
  -26.8768   -7.7258    4.8936 H   0  0  0  0  0  0  0  0  0  0  0  0
  -25.6369   -8.0266    3.6261 H   0  0  0  0  0  0  0  0  0  0  0  0
  -26.4344   -6.1623    2.4267 H   0  0  0  0  0  0  0  0  0  0  0  0
  1  2  2  0
  2  3  2  0
  2  4  1  0
  2  6  1  0
  4  5  1  0
  4  7  1  0
  4  8  1  0
  5  6  1  0
  5  9  1  0
  5 10  1  0
  6 11  1  0
M  END
> <intraLJ>
-0.439    

> <intraEL>
-3.883    

> <intraDihe>
14.792    

> <interLJ>
0.000     

> <interEJ>
0.000     

> <gridLJ>
-3.845    

> <gridEL>
0.000     

> <totalE>
6.624     

> <LGFE>
-3.845  

> <LE>
-0.641  

> <SMILES>
O=S1(=O)CCN1

> <atom.dprop.GFE>
-1.3 0 -1.3 -0.027 -0.22 -1 0 0 0 0 0

> <atom.prop.CLASS>
GENA NCLA GENA PRPC PRPC GEND NCLA NCLA NCLA NCLA NCLA

$$$$
75
     RDKit          3D

 11 11  0  0  0  0  0  0  0  0999 V2000
   -6.9960   11.2491   -7.0189 O   0  0  0  0  0  0  0  0  0  0  0  0
   -6.1563   11.1109   -8.1535 S   0  0  0  0  0  0  0  0  0  0  0  0
   -5.2272   12.1294   -8.4835 O   0  0  0  0  0  0  0  0  0  0  0  0
   -7.0236   10.6354   -9.5733 C   0  0  0  0  0  0  0  0  0  0  0  0
   -6.0579    9.3396   -9.5998 C   0  0  0  0  0  0  0  0  0  0  0  0
   -5.4821    9.6570   -8.1733 N   0  0  0  0  0  0  0  0  0  0  0  0
   -6.9023   11.1936  -10.4921 H   0  0  0  0  0  0  0  0  0  0  0  0
   -8.0571   10.3276   -9.4787 H   0  0  0  0  0  0  0  0  0  0  0  0
   -5.3018    9.4094  -10.3705 H   0  0  0  0  0  0  0  0  0  0  0  0
   -6.6034    8.4068   -9.6392 H   0  0  0  0  0  0  0  0  0  0  0  0
   -5.8165    8.9794   -7.4937 H   0  0  0  0  0  0  0  0  0  0  0  0
  1  2  2  0
  2  3  2  0
  2  4  1  0
  2  6  1  0
  4  5  1  0
  4  7  1  0
  4  8  1  0
  5  6  1  0
  5  9  1  0
  5 10  1  0
  6 11  1  0
M  END
> <intraLJ>
-0.439    

> <intraEL>
-3.883    

> <intraDihe>
14.792    

> <interLJ>
0.000     

> <interEJ>
0.000     

> <gridLJ>
-3.776    

> <gridEL>
0.000     

> <totalE>
6.694     

> <LGFE>
-3.776  

> <LE>
-0.629  

> <SMILES>
O=S1(=O)CCN1

> <atom.dprop.GFE>
-0.79 0 -0.83 -0.44 -0.46 -1.3 0 0 0 0 0

> <atom.prop.CLASS>
GENA NCLA GENA PRPC PRPC GEND NCLA NCLA NCLA NCLA NCLA

$$$$
75
     RDKit          3D

 11 11  0  0  0  0  0  0  0  0999 V2000
  -21.0995    2.1643   23.3801 O   0  0  0  0  0  0  0  0  0  0  0  0
  -19.8149    1.6467   23.6852 S   0  0  0  0  0  0  0  0  0  0  0  0
  -19.2150    1.9170   24.9408 O   0  0  0  0  0  0  0  0  0  0  0  0
  -18.6651    1.9234   22.4220 C   0  0  0  0  0  0  0  0  0  0  0  0
  -18.5043    0.3164   22.3617 C   0  0  0  0  0  0  0  0  0  0  0  0
  -19.7375    0.0909   23.3080 N   0  0  0  0  0  0  0  0  0  0  0  0
  -17.7081    2.3726   22.6522 H   0  0  0  0  0  0  0  0  0  0  0  0
  -19.0132    2.2989   21.4682 H   0  0  0  0  0  0  0  0  0  0  0  0
  -17.5784   -0.0186   22.8101 H   0  0  0  0  0  0  0  0  0  0  0  0
  -18.6521   -0.0861   21.3690 H   0  0  0  0  0  0  0  0  0  0  0  0
  -20.5187   -0.3020   22.7900 H   0  0  0  0  0  0  0  0  0  0  0  0
  1  2  2  0
  2  3  2  0
  2  4  1  0
  2  6  1  0
  4  5  1  0
  4  7  1  0
  4  8  1  0
  5  6  1  0
  5  9  1  0
  5 10  1  0
  6 11  1  0
M  END
> <intraLJ>
-0.439    

> <intraEL>
-3.883    

> <intraDihe>
14.792    

> <interLJ>
0.000     

> <interEJ>
0.000     

> <gridLJ>
-3.697    

> <gridEL>
0.000     

> <totalE>
6.773     

> <LGFE>
-3.697  

> <LE>
-0.616  

> <SMILES>
O=S1(=O)CCN1

> <atom.dprop.GFE>
-1.7 0 -0.52 -0.34 -0.5 -0.62 0 0 0 0 0

> <atom.prop.CLASS>
GENA NCLA GENA PRPC PRPC GEND NCLA NCLA NCLA NCLA NCLA

$$$$
75
     RDKit          3D

 11 11  0  0  0  0  0  0  0  0999 V2000
  -23.8327   10.1171   13.1743 O   0  0  0  0  0  0  0  0  0  0  0  0
  -24.1797    8.8854   12.5629 S   0  0  0  0  0  0  0  0  0  0  0  0
  -23.5104    8.4562   11.3893 O   0  0  0  0  0  0  0  0  0  0  0  0
  -25.8876    8.6986   12.3572 C   0  0  0  0  0  0  0  0  0  0  0  0
  -25.7459    7.3754   13.2743 C   0  0  0  0  0  0  0  0  0  0  0  0
  -24.2640    7.7223   13.6625 N   0  0  0  0  0  0  0  0  0  0  0  0
  -26.2879    8.4250   11.3900 H   0  0  0  0  0  0  0  0  0  0  0  0
  -26.5540    9.4092   12.8292 H   0  0  0  0  0  0  0  0  0  0  0  0
  -25.8137    6.4658   12.6924 H   0  0  0  0  0  0  0  0  0  0  0  0
  -26.4174    7.3748   14.1219 H   0  0  0  0  0  0  0  0  0  0  0  0
  -24.2054    7.9993   14.6386 H   0  0  0  0  0  0  0  0  0  0  0  0
  1  2  2  0
  2  3  2  0
  2  4  1  0
  2  6  1  0
  4  5  1  0
  4  7  1  0
  4  8  1  0
  5  6  1  0
  5  9  1  0
  5 10  1  0
  6 11  1  0
M  END
> <intraLJ>
-0.439    

> <intraEL>
-3.883    

> <intraDihe>
14.792    

> <interLJ>
0.000     

> <interEJ>
0.000     

> <gridLJ>
-3.681    

> <gridEL>
0.000     

> <totalE>
6.789     

> <LGFE>
-3.681  

> <LE>
-0.613  

> <SMILES>
O=S1(=O)CCN1

> <atom.dprop.GFE>
-0.86 0 -1.1 -0.37 -0.49 -0.84 0 0 0 0 0

> <atom.prop.CLASS>
GENA NCLA GENA PRPC PRPC GEND NCLA NCLA NCLA NCLA NCLA

$$$$
75
     RDKit          3D

 11 11  0  0  0  0  0  0  0  0999 V2000
   18.9240   14.8112   -3.6460 O   0  0  0  0  0  0  0  0  0  0  0  0
   19.9706   14.7743   -4.6023 S   0  0  0  0  0  0  0  0  0  0  0  0
   20.0258   15.7391   -5.6393 O   0  0  0  0  0  0  0  0  0  0  0  0
   20.2144   13.1951   -5.2664 C   0  0  0  0  0  0  0  0  0  0  0  0
   21.7202   13.3009   -4.6889 C   0  0  0  0  0  0  0  0  0  0  0  0
   21.3865   14.6001   -3.8716 N   0  0  0  0  0  0  0  0  0  0  0  0
   20.2489   13.0603   -6.3393 H   0  0  0  0  0  0  0  0  0  0  0  0
   19.7024   12.3527   -4.8190 H   0  0  0  0  0  0  0  0  0  0  0  0
   22.4454   13.4848   -5.4705 H   0  0  0  0  0  0  0  0  0  0  0  0
   21.9921   12.4632   -4.0616 H   0  0  0  0  0  0  0  0  0  0  0  0
   21.3748   14.4023   -2.8747 H   0  0  0  0  0  0  0  0  0  0  0  0
  1  2  2  0
  2  3  2  0
  2  4  1  0
  2  6  1  0
  4  5  1  0
  4  7  1  0
  4  8  1  0
  5  6  1  0
  5  9  1  0
  5 10  1  0
  6 11  1  0
M  END
> <intraLJ>
-0.439    

> <intraEL>
-3.883    

> <intraDihe>
14.792    

> <interLJ>
0.000     

> <interEJ>
0.000     

> <gridLJ>
-3.500    

> <gridEL>
0.000     

> <totalE>
6.970     

> <LGFE>
-3.500  

> <LE>
-0.583  

> <SMILES>
O=S1(=O)CCN1

> <atom.dprop.GFE>
-0.89 0 -1.1 -0.55 -0.54 -0.41 0 0 0 0 0

> <atom.prop.CLASS>
GENA NCLA GENA PRPC PRPC GEND NCLA NCLA NCLA NCLA NCLA

$$$$
75
     RDKit          3D

 11 11  0  0  0  0  0  0  0  0999 V2000
  -24.8265    4.9469    6.5167 O   0  0  0  0  0  0  0  0  0  0  0  0
  -24.9406    4.2116    5.3095 S   0  0  0  0  0  0  0  0  0  0  0  0
  -24.0779    4.4887    4.2194 O   0  0  0  0  0  0  0  0  0  0  0  0
  -26.5724    4.1032    4.7441 C   0  0  0  0  0  0  0  0  0  0  0  0
  -26.3930    2.5010    4.8582 C   0  0  0  0  0  0  0  0  0  0  0  0
  -25.0266    2.6415    5.6200 N   0  0  0  0  0  0  0  0  0  0  0  0
  -26.8079    4.3671    3.7216 H   0  0  0  0  0  0  0  0  0  0  0  0
  -27.3751    4.4350    5.3903 H   0  0  0  0  0  0  0  0  0  0  0  0
  -26.2749    2.0332    3.8898 H   0  0  0  0  0  0  0  0  0  0  0  0
  -27.1640    2.0308    5.4531 H   0  0  0  0  0  0  0  0  0  0  0  0
  -25.1290    2.3641    6.5923 H   0  0  0  0  0  0  0  0  0  0  0  0
  1  2  2  0
  2  3  2  0
  2  4  1  0
  2  6  1  0
  4  5  1  0
  4  7  1  0
  4  8  1  0
  5  6  1  0
  5  9  1  0
  5 10  1  0
  6 11  1  0
M  END
> <intraLJ>
-0.439    

> <intraEL>
-3.883    

> <intraDihe>
14.792    

> <interLJ>
0.000     

> <interEJ>
0.000     

> <gridLJ>
-3.454    

> <gridEL>
0.000     

> <totalE>
7.016     

> <LGFE>
-3.454  

> <LE>
-0.576  

> <SMILES>
O=S1(=O)CCN1

> <atom.dprop.GFE>
-0.87 0 -1.3 -0.14 -0.3 -0.88 0 0 0 0 0

> <atom.prop.CLASS>
GENA NCLA GENA PRPC PRPC GEND NCLA NCLA NCLA NCLA NCLA

$$$$
75
     RDKit          3D

 11 11  0  0  0  0  0  0  0  0999 V2000
  -25.6993   -5.8635    3.8144 O   0  0  0  0  0  0  0  0  0  0  0  0
  -26.7724   -5.2284    4.4900 S   0  0  0  0  0  0  0  0  0  0  0  0
  -26.5245   -4.1326    5.3544 O   0  0  0  0  0  0  0  0  0  0  0  0
  -27.8314   -6.3533    5.2693 C   0  0  0  0  0  0  0  0  0  0  0  0
  -28.9998   -5.7337    4.3404 C   0  0  0  0  0  0  0  0  0  0  0  0
  -27.9713   -4.9263    3.4701 N   0  0  0  0  0  0  0  0  0  0  0  0
  -28.0900   -6.2182    6.3111 H   0  0  0  0  0  0  0  0  0  0  0  0
  -27.7156   -7.4104    5.0665 H   0  0  0  0  0  0  0  0  0  0  0  0
  -29.6629   -5.0845    4.8968 H   0  0  0  0  0  0  0  0  0  0  0  0
  -29.5347   -6.4855    3.7765 H   0  0  0  0  0  0  0  0  0  0  0  0
  -27.9012   -5.3248    2.5378 H   0  0  0  0  0  0  0  0  0  0  0  0
  1  2  2  0
  2  3  2  0
  2  4  1  0
  2  6  1  0
  4  5  1  0
  4  7  1  0
  4  8  1  0
  5  6  1  0
  5  9  1  0
  5 10  1  0
  6 11  1  0
M  END
> <intraLJ>
-0.439    

> <intraEL>
-3.883    

> <intraDihe>
14.792    

> <interLJ>
0.000     

> <interEJ>
0.000     

> <gridLJ>
-3.437    

> <gridEL>
0.000     

> <totalE>
7.033     

> <LGFE>
-3.437  

> <LE>
-0.573  

> <SMILES>
O=S1(=O)CCN1

> <atom.dprop.GFE>
-0.98 0 -1.3 -0.032 -0.35 -0.82 0 0 0 0 0

> <atom.prop.CLASS>
GENA NCLA GENA PRPC PRPC GEND NCLA NCLA NCLA NCLA NCLA

$$$$
75
     RDKit          3D

 11 11  0  0  0  0  0  0  0  0999 V2000
  -19.2941    1.4795   23.9674 O   0  0  0  0  0  0  0  0  0  0  0  0
  -20.4357    1.6969   24.7803 S   0  0  0  0  0  0  0  0  0  0  0  0
  -21.4612    2.5769   24.3520 O   0  0  0  0  0  0  0  0  0  0  0  0
  -20.0288    2.0390   26.4270 C   0  0  0  0  0  0  0  0  0  0  0  0
  -20.9033    0.7328   26.8030 C   0  0  0  0  0  0  0  0  0  0  0  0
  -21.0247    0.2992   25.2982 N   0  0  0  0  0  0  0  0  0  0  0  0
  -20.4491    2.9070   26.9176 H   0  0  0  0  0  0  0  0  0  0  0  0
  -19.0049    1.9081   26.7529 H   0  0  0  0  0  0  0  0  0  0  0  0
  -21.8619    0.9927   27.2320 H   0  0  0  0  0  0  0  0  0  0  0  0
  -20.3595    0.0199   27.4074 H   0  0  0  0  0  0  0  0  0  0  0  0
  -20.4707   -0.5341   25.1203 H   0  0  0  0  0  0  0  0  0  0  0  0
  1  2  2  0
  2  3  2  0
  2  4  1  0
  2  6  1  0
  4  5  1  0
  4  7  1  0
  4  8  1  0
  5  6  1  0
  5  9  1  0
  5 10  1  0
  6 11  1  0
M  END
> <intraLJ>
-0.439    

> <intraEL>
-3.883    

> <intraDihe>
14.792    

> <interLJ>
0.000     

> <interEJ>
0.000     

> <gridLJ>
-3.501    

> <gridEL>
0.000     

> <totalE>
6.969     

> <LGFE>
-3.501  

> <LE>
-0.584  

> <SMILES>
O=S1(=O)CCN1

> <atom.dprop.GFE>
-0.65 0 -1.7 -0.17 -0.27 -0.69 0 0 0 0 0

> <atom.prop.CLASS>
GENA NCLA GENA PRPC PRPC GEND NCLA NCLA NCLA NCLA NCLA

$$$$
75
     RDKit          3D

 11 11  0  0  0  0  0  0  0  0999 V2000
   19.6408   -1.1032  -35.8713 O   0  0  0  0  0  0  0  0  0  0  0  0
   18.3157   -1.4965  -35.5541 S   0  0  0  0  0  0  0  0  0  0  0  0
   17.2345   -1.0970  -36.3792 O   0  0  0  0  0  0  0  0  0  0  0  0
   17.9135   -1.2146  -33.8949 C   0  0  0  0  0  0  0  0  0  0  0  0
   17.6379   -2.8045  -33.8022 C   0  0  0  0  0  0  0  0  0  0  0  0
   18.2651   -3.0630  -35.2189 N   0  0  0  0  0  0  0  0  0  0  0  0
   17.0090   -0.6772  -33.6427 H   0  0  0  0  0  0  0  0  0  0  0  0
   18.6985   -0.9319  -33.2051 H   0  0  0  0  0  0  0  0  0  0  0  0
   16.5811   -3.0350  -33.7749 H   0  0  0  0  0  0  0  0  0  0  0  0
   18.1860   -3.2824  -33.0019 H   0  0  0  0  0  0  0  0  0  0  0  0
   19.1532   -3.5498  -35.1333 H   0  0  0  0  0  0  0  0  0  0  0  0
  1  2  2  0
  2  3  2  0
  2  4  1  0
  2  6  1  0
  4  5  1  0
  4  7  1  0
  4  8  1  0
  5  6  1  0
  5  9  1  0
  5 10  1  0
  6 11  1  0
M  END
> <intraLJ>
-0.439    

> <intraEL>
-3.883    

> <intraDihe>
14.792    

> <interLJ>
0.000     

> <interEJ>
0.000     

> <gridLJ>
-3.450    

> <gridEL>
0.000     

> <totalE>
7.019     

> <LGFE>
-3.450  

> <LE>
-0.575  

> <SMILES>
O=S1(=O)CCN1

> <atom.dprop.GFE>
-0.9 0 -1 -0.42 -0.49 -0.61 0 0 0 0 0

> <atom.prop.CLASS>
GENA NCLA GENA PRPC PRPC GEND NCLA NCLA NCLA NCLA NCLA

$$$$
75
     RDKit          3D

 11 11  0  0  0  0  0  0  0  0999 V2000
   21.3386   -3.8381  -26.7880 O   0  0  0  0  0  0  0  0  0  0  0  0
   22.0577   -3.1132  -27.7723 S   0  0  0  0  0  0  0  0  0  0  0  0
   21.5337   -1.9041  -28.2946 O   0  0  0  0  0  0  0  0  0  0  0  0
   22.6087   -4.1150  -29.0711 C   0  0  0  0  0  0  0  0  0  0  0  0
   24.0986   -3.6366  -28.6666 C   0  0  0  0  0  0  0  0  0  0  0  0
   23.5939   -2.9622  -27.3409 N   0  0  0  0  0  0  0  0  0  0  0  0
   22.4052   -3.8313  -30.0952 H   0  0  0  0  0  0  0  0  0  0  0  0
   22.5244   -5.1901  -28.9771 H   0  0  0  0  0  0  0  0  0  0  0  0
   24.4997   -2.9146  -29.3654 H   0  0  0  0  0  0  0  0  0  0  0  0
   24.7746   -4.4623  -28.4918 H   0  0  0  0  0  0  0  0  0  0  0  0
   23.9040   -3.4909  -26.5301 H   0  0  0  0  0  0  0  0  0  0  0  0
  1  2  2  0
  2  3  2  0
  2  4  1  0
  2  6  1  0
  4  5  1  0
  4  7  1  0
  4  8  1  0
  5  6  1  0
  5  9  1  0
  5 10  1  0
  6 11  1  0
M  END
> <intraLJ>
-0.439    

> <intraEL>
-3.883    

> <intraDihe>
14.792    

> <interLJ>
0.000     

> <interEJ>
0.000     

> <gridLJ>
-3.414    

> <gridEL>
0.000     

> <totalE>
7.056     

> <LGFE>
-3.414  

> <LE>
-0.569  

> <SMILES>
O=S1(=O)CCN1

> <atom.dprop.GFE>
-1.5 0 -1.2 -0.025 -0.041 -0.63 0 0 0 0 0

> <atom.prop.CLASS>
GENA NCLA GENA PRPC PRPC GEND NCLA NCLA NCLA NCLA NCLA

$$$$
75
     RDKit          3D

 11 11  0  0  0  0  0  0  0  0999 V2000
  -39.2396    7.5128   21.9470 O   0  0  0  0  0  0  0  0  0  0  0  0
  -39.5410    6.9165   20.6961 S   0  0  0  0  0  0  0  0  0  0  0  0
  -40.8173    7.0980   20.1065 O   0  0  0  0  0  0  0  0  0  0  0  0
  -39.1050    5.2432   20.6305 C   0  0  0  0  0  0  0  0  0  0  0  0
  -38.1506    5.6501   19.3913 C   0  0  0  0  0  0  0  0  0  0  0  0
  -38.3558    7.1855   19.6512 N   0  0  0  0  0  0  0  0  0  0  0  0
  -39.8288    4.5094   20.3016 H   0  0  0  0  0  0  0  0  0  0  0  0
  -38.5134    4.8230   21.4338 H   0  0  0  0  0  0  0  0  0  0  0  0
  -38.5610    5.3382   18.4401 H   0  0  0  0  0  0  0  0  0  0  0  0
  -37.1261    5.3306   19.5243 H   0  0  0  0  0  0  0  0  0  0  0  0
  -37.5030    7.6043   20.0121 H   0  0  0  0  0  0  0  0  0  0  0  0
  1  2  2  0
  2  3  2  0
  2  4  1  0
  2  6  1  0
  4  5  1  0
  4  7  1  0
  4  8  1  0
  5  6  1  0
  5  9  1  0
  5 10  1  0
  6 11  1  0
M  END
> <intraLJ>
-0.439    

> <intraEL>
-3.883    

> <intraDihe>
14.792    

> <interLJ>
0.000     

> <interEJ>
0.000     

> <gridLJ>
-3.361    

> <gridEL>
0.000     

> <totalE>
7.109     

> <LGFE>
-3.361  

> <LE>
-0.560  

> <SMILES>
O=S1(=O)CCN1

> <atom.dprop.GFE>
-0.7 0 -0.83 -0.56 -0.43 -0.84 0 0 0 0 0

> <atom.prop.CLASS>
GENA NCLA GENA PRPC PRPC GEND NCLA NCLA NCLA NCLA NCLA

$$$$
75
     RDKit          3D

 11 11  0  0  0  0  0  0  0  0999 V2000
  -17.0036    9.1462   -7.4603 O   0  0  0  0  0  0  0  0  0  0  0  0
  -16.2092    9.6598   -6.4037 S   0  0  0  0  0  0  0  0  0  0  0  0
  -15.2778   10.6997   -6.6499 O   0  0  0  0  0  0  0  0  0  0  0  0
  -15.4541    8.4148   -5.4687 C   0  0  0  0  0  0  0  0  0  0  0  0
  -16.2502    9.0295   -4.2037 C   0  0  0  0  0  0  0  0  0  0  0  0
  -17.1193    9.9636   -5.1199 N   0  0  0  0  0  0  0  0  0  0  0  0
  -14.3899    8.4536   -5.2778 H   0  0  0  0  0  0  0  0  0  0  0  0
  -15.7486    7.3856   -5.6297 H   0  0  0  0  0  0  0  0  0  0  0  0
  -15.6005    9.5918   -3.5461 H   0  0  0  0  0  0  0  0  0  0  0  0
  -16.8360    8.2911   -3.6736 H   0  0  0  0  0  0  0  0  0  0  0  0
  -18.0832    9.6425   -5.1460 H   0  0  0  0  0  0  0  0  0  0  0  0
  1  2  2  0
  2  3  2  0
  2  4  1  0
  2  6  1  0
  4  5  1  0
  4  7  1  0
  4  8  1  0
  5  6  1  0
  5  9  1  0
  5 10  1  0
  6 11  1  0
M  END
> <intraLJ>
-0.439    

> <intraEL>
-3.883    

> <intraDihe>
14.792    

> <interLJ>
0.000     

> <interEJ>
0.000     

> <gridLJ>
-3.431    

> <gridEL>
0.000     

> <totalE>
7.039     

> <LGFE>
-3.431  

> <LE>
-0.572  

> <SMILES>
O=S1(=O)CCN1

> <atom.dprop.GFE>
-1.1 0 -1.3 -0.045 -0.34 -0.56 0 0 0 0 0

> <atom.prop.CLASS>
GENA NCLA GENA PRPC PRPC GEND NCLA NCLA NCLA NCLA NCLA

$$$$
75
     RDKit          3D

 11 11  0  0  0  0  0  0  0  0999 V2000
   21.0151    3.9268  -30.7677 O   0  0  0  0  0  0  0  0  0  0  0  0
   22.0093    3.0404  -31.2548 S   0  0  0  0  0  0  0  0  0  0  0  0
   22.5724    3.2350  -32.5411 O   0  0  0  0  0  0  0  0  0  0  0  0
   21.5768    1.3766  -31.0572 C   0  0  0  0  0  0  0  0  0  0  0  0
   22.9197    1.2435  -30.1679 C   0  0  0  0  0  0  0  0  0  0  0  0
   23.1348    2.7991  -30.1395 N   0  0  0  0  0  0  0  0  0  0  0  0
   21.6344    0.7003  -31.8997 H   0  0  0  0  0  0  0  0  0  0  0  0
   20.7087    1.1272  -30.4604 H   0  0  0  0  0  0  0  0  0  0  0  0
   23.7115    0.7310  -30.6979 H   0  0  0  0  0  0  0  0  0  0  0  0
   22.7380    0.8224  -29.1886 H   0  0  0  0  0  0  0  0  0  0  0  0
   22.9555    3.1681  -29.2096 H   0  0  0  0  0  0  0  0  0  0  0  0
  1  2  2  0
  2  3  2  0
  2  4  1  0
  2  6  1  0
  4  5  1  0
  4  7  1  0
  4  8  1  0
  5  6  1  0
  5  9  1  0
  5 10  1  0
  6 11  1  0
M  END
> <intraLJ>
-0.439    

> <intraEL>
-3.883    

> <intraDihe>
14.792    

> <interLJ>
0.000     

> <interEJ>
0.000     

> <gridLJ>
-3.346    

> <gridEL>
0.000     

> <totalE>
7.124     

> <LGFE>
-3.346  

> <LE>
-0.558  

> <SMILES>
O=S1(=O)CCN1

> <atom.dprop.GFE>
-1.1 0 -1.1 -0.18 -0.26 -0.68 0 0 0 0 0

> <atom.prop.CLASS>
GENA NCLA GENA PRPC PRPC GEND NCLA NCLA NCLA NCLA NCLA

$$$$
75
     RDKit          3D

 11 11  0  0  0  0  0  0  0  0999 V2000
    8.9389   14.0311  -34.6556 O   0  0  0  0  0  0  0  0  0  0  0  0
    9.3805   13.6610  -35.9515 S   0  0  0  0  0  0  0  0  0  0  0  0
   10.7105   13.2138  -36.1529 O   0  0  0  0  0  0  0  0  0  0  0  0
    8.9748   14.8344  -37.1568 C   0  0  0  0  0  0  0  0  0  0  0  0
    8.1544   13.6470  -37.8842 C   0  0  0  0  0  0  0  0  0  0  0  0
    8.3115   12.6910  -36.6479 N   0  0  0  0  0  0  0  0  0  0  0  0
    9.7388   15.2066  -37.8263 H   0  0  0  0  0  0  0  0  0  0  0  0
    8.3054   15.6443  -36.8966 H   0  0  0  0  0  0  0  0  0  0  0  0
    8.6686   13.2717  -38.7591 H   0  0  0  0  0  0  0  0  0  0  0  0
    7.1255   13.9088  -38.0901 H   0  0  0  0  0  0  0  0  0  0  0  0
    7.4196   12.5662  -36.1768 H   0  0  0  0  0  0  0  0  0  0  0  0
  1  2  2  0
  2  3  2  0
  2  4  1  0
  2  6  1  0
  4  5  1  0
  4  7  1  0
  4  8  1  0
  5  6  1  0
  5  9  1  0
  5 10  1  0
  6 11  1  0
M  END
> <intraLJ>
-0.439    

> <intraEL>
-3.883    

> <intraDihe>
14.792    

> <interLJ>
0.000     

> <interEJ>
0.000     

> <gridLJ>
-3.255    

> <gridEL>
0.000     

> <totalE>
7.214     

> <LGFE>
-3.255  

> <LE>
-0.543  

> <SMILES>
O=S1(=O)CCN1

> <atom.dprop.GFE>
-0.95 0 -1.3 -0.22 -0.073 -0.75 0 0 0 0 0

> <atom.prop.CLASS>
GENA NCLA GENA PRPC PRPC GEND NCLA NCLA NCLA NCLA NCLA

$$$$
75
     RDKit          3D

 11 11  0  0  0  0  0  0  0  0999 V2000
  -15.2080    7.8543  -16.5470 O   0  0  0  0  0  0  0  0  0  0  0  0
  -15.3880    8.8473  -15.5505 S   0  0  0  0  0  0  0  0  0  0  0  0
  -14.6608   10.0625  -15.6126 O   0  0  0  0  0  0  0  0  0  0  0  0
  -15.3089    8.2058  -13.9454 C   0  0  0  0  0  0  0  0  0  0  0  0
  -16.8105    8.7736  -13.7588 C   0  0  0  0  0  0  0  0  0  0  0  0
  -16.9495    9.0974  -15.2895 N   0  0  0  0  0  0  0  0  0  0  0  0
  -14.6574    8.6636  -13.2129 H   0  0  0  0  0  0  0  0  0  0  0  0
  -15.2972    7.1320  -13.8091 H   0  0  0  0  0  0  0  0  0  0  0  0
  -16.8368    9.6664  -13.1482 H   0  0  0  0  0  0  0  0  0  0  0  0
  -17.5081    8.0201  -13.4196 H   0  0  0  0  0  0  0  0  0  0  0  0
  -17.6038    8.4581  -15.7324 H   0  0  0  0  0  0  0  0  0  0  0  0
  1  2  2  0
  2  3  2  0
  2  4  1  0
  2  6  1  0
  4  5  1  0
  4  7  1  0
  4  8  1  0
  5  6  1  0
  5  9  1  0
  5 10  1  0
  6 11  1  0
M  END
> <intraLJ>
-0.439    

> <intraEL>
-3.883    

> <intraDihe>
14.792    

> <interLJ>
0.000     

> <interEJ>
0.000     

> <gridLJ>
-3.266    

> <gridEL>
0.000     

> <totalE>
7.204     

> <LGFE>
-3.266  

> <LE>
-0.544  

> <SMILES>
O=S1(=O)CCN1

> <atom.dprop.GFE>
-0.78 0 -0.87 -0.54 -0.45 -0.64 0 0 0 0 0

> <atom.prop.CLASS>
GENA NCLA GENA PRPC PRPC GEND NCLA NCLA NCLA NCLA NCLA

$$$$
75
     RDKit          3D

 11 11  0  0  0  0  0  0  0  0999 V2000
   10.0183    9.0070  -41.5665 O   0  0  0  0  0  0  0  0  0  0  0  0
   11.1094    8.1163  -41.7326 S   0  0  0  0  0  0  0  0  0  0  0  0
   11.4113    7.1609  -40.7298 O   0  0  0  0  0  0  0  0  0  0  0  0
   12.5609    8.9209  -42.2224 C   0  0  0  0  0  0  0  0  0  0  0  0
   12.5207    7.9701  -43.5287 C   0  0  0  0  0  0  0  0  0  0  0  0
   11.0738    7.4587  -43.1938 N   0  0  0  0  0  0  0  0  0  0  0  0
   13.4818    8.7498  -41.6808 H   0  0  0  0  0  0  0  0  0  0  0  0
   12.5105    9.9612  -42.5173 H   0  0  0  0  0  0  0  0  0  0  0  0
   13.2557    7.1776  -43.4799 H   0  0  0  0  0  0  0  0  0  0  0  0
   12.5708    8.5239  -44.4561 H   0  0  0  0  0  0  0  0  0  0  0  0
   10.4000    7.8328  -43.8564 H   0  0  0  0  0  0  0  0  0  0  0  0
  1  2  2  0
  2  3  2  0
  2  4  1  0
  2  6  1  0
  4  5  1  0
  4  7  1  0
  4  8  1  0
  5  6  1  0
  5  9  1  0
  5 10  1  0
  6 11  1  0
M  END
> <intraLJ>
-0.439    

> <intraEL>
-3.883    

> <intraDihe>
14.792    

> <interLJ>
0.000     

> <interEJ>
0.000     

> <gridLJ>
-3.256    

> <gridEL>
0.000     

> <totalE>
7.214     

> <LGFE>
-3.256  

> <LE>
-0.543  

> <SMILES>
O=S1(=O)CCN1

> <atom.dprop.GFE>
-1.2 0 -0.93 -0.19 -0.23 -0.73 0 0 0 0 0

> <atom.prop.CLASS>
GENA NCLA GENA PRPC PRPC GEND NCLA NCLA NCLA NCLA NCLA

$$$$
75
     RDKit          3D

 11 11  0  0  0  0  0  0  0  0999 V2000
  -32.0653  -10.8592   23.4797 O   0  0  0  0  0  0  0  0  0  0  0  0
  -30.8797  -10.0831   23.5387 S   0  0  0  0  0  0  0  0  0  0  0  0
  -30.2527   -9.6439   22.3457 O   0  0  0  0  0  0  0  0  0  0  0  0
  -29.6929  -10.7550   24.6037 C   0  0  0  0  0  0  0  0  0  0  0  0
  -29.7860   -9.3602   25.4150 C   0  0  0  0  0  0  0  0  0  0  0  0
  -31.0452   -8.8937   24.6002 N   0  0  0  0  0  0  0  0  0  0  0  0
  -28.6788  -10.9028   24.2571 H   0  0  0  0  0  0  0  0  0  0  0  0
  -29.9719  -11.5795   25.2474 H   0  0  0  0  0  0  0  0  0  0  0  0
  -28.9270   -8.7267   25.2381 H   0  0  0  0  0  0  0  0  0  0  0  0
  -29.9890   -9.4968   26.4683 H   0  0  0  0  0  0  0  0  0  0  0  0
  -31.8752   -8.9052   25.1867 H   0  0  0  0  0  0  0  0  0  0  0  0
  1  2  2  0
  2  3  2  0
  2  4  1  0
  2  6  1  0
  4  5  1  0
  4  7  1  0
  4  8  1  0
  5  6  1  0
  5  9  1  0
  5 10  1  0
  6 11  1  0
M  END
> <intraLJ>
-0.439    

> <intraEL>
-3.883    

> <intraDihe>
14.792    

> <interLJ>
0.000     

> <interEJ>
0.000     

> <gridLJ>
-3.240    

> <gridEL>
0.000     

> <totalE>
7.230     

> <LGFE>
-3.240  

> <LE>
-0.540  

> <SMILES>
O=S1(=O)CCN1

> <atom.dprop.GFE>
-0.38 0 -1.1 -0.52 -0.45 -0.77 0 0 0 0 0

> <atom.prop.CLASS>
GENA NCLA GENA PRPC PRPC GEND NCLA NCLA NCLA NCLA NCLA

$$$$
75
     RDKit          3D

 11 11  0  0  0  0  0  0  0  0999 V2000
    1.9525   -0.4357  -36.4373 O   0  0  0  0  0  0  0  0  0  0  0  0
    2.8170    0.2737  -37.3095 S   0  0  0  0  0  0  0  0  0  0  0  0
    3.9115    1.0089  -36.7891 O   0  0  0  0  0  0  0  0  0  0  0  0
    1.9596    1.2447  -38.4568 C   0  0  0  0  0  0  0  0  0  0  0  0
    2.7078    0.3730  -39.5936 C   0  0  0  0  0  0  0  0  0  0  0  0
    3.2523   -0.6566  -38.5398 N   0  0  0  0  0  0  0  0  0  0  0  0
    2.2151    2.2891  -38.5777 H   0  0  0  0  0  0  0  0  0  0  0  0
    0.8869    1.1292  -38.5448 H   0  0  0  0  0  0  0  0  0  0  0  0
    3.5041    0.9258  -40.0742 H   0  0  0  0  0  0  0  0  0  0  0  0
    2.0241   -0.0695  -40.3050 H   0  0  0  0  0  0  0  0  0  0  0  0
    2.7801   -1.5513  -38.6369 H   0  0  0  0  0  0  0  0  0  0  0  0
  1  2  2  0
  2  3  2  0
  2  4  1  0
  2  6  1  0
  4  5  1  0
  4  7  1  0
  4  8  1  0
  5  6  1  0
  5  9  1  0
  5 10  1  0
  6 11  1  0
M  END
> <intraLJ>
-0.439    

> <intraEL>
-3.883    

> <intraDihe>
14.792    

> <interLJ>
0.000     

> <interEJ>
0.000     

> <gridLJ>
-3.158    

> <gridEL>
0.000     

> <totalE>
7.312     

> <LGFE>
-3.158  

> <LE>
-0.526  

> <SMILES>
O=S1(=O)CCN1

> <atom.dprop.GFE>
-0.61 0 -0.82 -0.44 -0.4 -0.9 0 0 0 0 0

> <atom.prop.CLASS>
GENA NCLA GENA PRPC PRPC GEND NCLA NCLA NCLA NCLA NCLA

$$$$
75
     RDKit          3D

 11 11  0  0  0  0  0  0  0  0999 V2000
  -37.4312    8.3236   16.3422 O   0  0  0  0  0  0  0  0  0  0  0  0
  -38.6818    7.7710   16.7188 S   0  0  0  0  0  0  0  0  0  0  0  0
  -39.8256    7.9705   15.9056 O   0  0  0  0  0  0  0  0  0  0  0  0
  -39.0832    8.0894   18.3716 C   0  0  0  0  0  0  0  0  0  0  0  0
  -39.1336    6.4847   18.5575 C   0  0  0  0  0  0  0  0  0  0  0  0
  -38.5074    6.2341   17.1389 N   0  0  0  0  0  0  0  0  0  0  0  0
  -40.0477    8.5112   18.6211 H   0  0  0  0  0  0  0  0  0  0  0  0
  -38.3302    8.5161   19.0219 H   0  0  0  0  0  0  0  0  0  0  0  0
  -40.1473    6.1133   18.6281 H   0  0  0  0  0  0  0  0  0  0  0  0
  -38.5073    6.1330   19.3658 H   0  0  0  0  0  0  0  0  0  0  0  0
  -37.5588    5.8795   17.2243 H   0  0  0  0  0  0  0  0  0  0  0  0
  1  2  2  0
  2  3  2  0
  2  4  1  0
  2  6  1  0
  4  5  1  0
  4  7  1  0
  4  8  1  0
  5  6  1  0
  5  9  1  0
  5 10  1  0
  6 11  1  0
M  END
> <intraLJ>
-0.439    

> <intraEL>
-3.883    

> <intraDihe>
14.792    

> <interLJ>
0.000     

> <interEJ>
0.000     

> <gridLJ>
-2.985    

> <gridEL>
0.000     

> <totalE>
7.485     

> <LGFE>
-2.985  

> <LE>
-0.497  

> <SMILES>
O=S1(=O)CCN1

> <atom.dprop.GFE>
-0.71 0 -0.7 -0.49 -0.53 -0.55 0 0 0 0 0

> <atom.prop.CLASS>
GENA NCLA GENA PRPC PRPC GEND NCLA NCLA NCLA NCLA NCLA

$$$$
75
     RDKit          3D

 11 11  0  0  0  0  0  0  0  0999 V2000
    2.9388    7.1534  -27.6678 O   0  0  0  0  0  0  0  0  0  0  0  0
    3.5396    8.3213  -27.1328 S   0  0  0  0  0  0  0  0  0  0  0  0
    4.6219    8.9412  -27.8063 O   0  0  0  0  0  0  0  0  0  0  0  0
    3.9144    8.1698  -25.4503 C   0  0  0  0  0  0  0  0  0  0  0  0
    2.9420    9.4416  -25.2283 C   0  0  0  0  0  0  0  0  0  0  0  0
    2.4148    9.3806  -26.7066 N   0  0  0  0  0  0  0  0  0  0  0  0
    4.9077    8.4098  -25.0950 H   0  0  0  0  0  0  0  0  0  0  0  0
    3.5389    7.3141  -24.9038 H   0  0  0  0  0  0  0  0  0  0  0  0
    3.4959   10.3494  -25.0289 H   0  0  0  0  0  0  0  0  0  0  0  0
    2.1690    9.2594  -24.4943 H   0  0  0  0  0  0  0  0  0  0  0  0
    1.4481    9.0677  -26.7289 H   0  0  0  0  0  0  0  0  0  0  0  0
  1  2  2  0
  2  3  2  0
  2  4  1  0
  2  6  1  0
  4  5  1  0
  4  7  1  0
  4  8  1  0
  5  6  1  0
  5  9  1  0
  5 10  1  0
  6 11  1  0
M  END
> <intraLJ>
-0.439    

> <intraEL>
-3.883    

> <intraDihe>
14.792    

> <interLJ>
0.000     

> <interEJ>
0.000     

> <gridLJ>
-2.948    

> <gridEL>
0.000     

> <totalE>
7.522     

> <LGFE>
-2.948  

> <LE>
-0.491  

> <SMILES>
O=S1(=O)CCN1

> <atom.dprop.GFE>
-1.3 0 -0.87 -0.23 -0.27 -0.25 0 0 0 0 0

> <atom.prop.CLASS>
GENA NCLA GENA PRPC PRPC GEND NCLA NCLA NCLA NCLA NCLA

$$$$
75
     RDKit          3D

 11 11  0  0  0  0  0  0  0  0999 V2000
  -10.9175    9.4332    2.3841 O   0  0  0  0  0  0  0  0  0  0  0  0
  -10.0062    9.9685    3.3298 S   0  0  0  0  0  0  0  0  0  0  0  0
   -9.2963    9.1083    4.2047 O   0  0  0  0  0  0  0  0  0  0  0  0
  -10.6736   11.2875    4.2292 C   0  0  0  0  0  0  0  0  0  0  0  0
   -9.4561   12.1692    3.6355 C   0  0  0  0  0  0  0  0  0  0  0  0
   -9.0401   11.0379    2.6284 N   0  0  0  0  0  0  0  0  0  0  0  0
  -10.6223   11.2846    5.3099 H   0  0  0  0  0  0  0  0  0  0  0  0
  -11.6225   11.7070    3.9200 H   0  0  0  0  0  0  0  0  0  0  0  0
   -8.6904   12.3592    4.3759 H   0  0  0  0  0  0  0  0  0  0  0  0
   -9.7893   13.0731    3.1442 H   0  0  0  0  0  0  0  0  0  0  0  0
   -9.2609   11.3095    1.6743 H   0  0  0  0  0  0  0  0  0  0  0  0
  1  2  2  0
  2  3  2  0
  2  4  1  0
  2  6  1  0
  4  5  1  0
  4  7  1  0
  4  8  1  0
  5  6  1  0
  5  9  1  0
  5 10  1  0
  6 11  1  0
M  END
> <intraLJ>
-0.439    

> <intraEL>
-3.883    

> <intraDihe>
14.792    

> <interLJ>
0.000     

> <interEJ>
0.000     

> <gridLJ>
-2.878    

> <gridEL>
0.000     

> <totalE>
7.591     

> <LGFE>
-2.878  

> <LE>
-0.480  

> <SMILES>
O=S1(=O)CCN1

> <atom.dprop.GFE>
-0.79 0 -0.65 -0.0027 -0.17 -1.3 0 0 0 0 0

> <atom.prop.CLASS>
GENA NCLA GENA PRPC PRPC GEND NCLA NCLA NCLA NCLA NCLA

$$$$
75
     RDKit          3D

 11 11  0  0  0  0  0  0  0  0999 V2000
  -29.0513   15.1311   17.4599 O   0  0  0  0  0  0  0  0  0  0  0  0
  -28.1260   14.4189   18.2648 S   0  0  0  0  0  0  0  0  0  0  0  0
  -27.2763   15.1135   19.1621 O   0  0  0  0  0  0  0  0  0  0  0  0
  -27.1997   13.2699   17.3615 C   0  0  0  0  0  0  0  0  0  0  0  0
  -27.8187   12.1524   18.3515 C   0  0  0  0  0  0  0  0  0  0  0  0
  -28.8446   13.1702   18.9669 N   0  0  0  0  0  0  0  0  0  0  0  0
  -26.1207   13.2640   17.4417 H   0  0  0  0  0  0  0  0  0  0  0  0
  -27.4807   13.0573   16.3380 H   0  0  0  0  0  0  0  0  0  0  0  0
  -27.0973   11.8080   19.0806 H   0  0  0  0  0  0  0  0  0  0  0  0
  -28.2944   11.3372   17.8238 H   0  0  0  0  0  0  0  0  0  0  0  0
  -29.7906   12.9491   18.6684 H   0  0  0  0  0  0  0  0  0  0  0  0
  1  2  2  0
  2  3  2  0
  2  4  1  0
  2  6  1  0
  4  5  1  0
  4  7  1  0
  4  8  1  0
  5  6  1  0
  5  9  1  0
  5 10  1  0
  6 11  1  0
M  END
> <intraLJ>
-0.439    

> <intraEL>
-3.883    

> <intraDihe>
14.792    

> <interLJ>
0.000     

> <interEJ>
0.000     

> <gridLJ>
-2.769    

> <gridEL>
0.000     

> <totalE>
7.701     

> <LGFE>
-2.769  

> <LE>
-0.461  

> <SMILES>
O=S1(=O)CCN1

> <atom.dprop.GFE>
-0.81 0 -0.65 -0.46 -0.36 -0.49 0 0 0 0 0

> <atom.prop.CLASS>
GENA NCLA GENA PRPC PRPC GEND NCLA NCLA NCLA NCLA NCLA

$$$$
75
     RDKit          3D

 11 11  0  0  0  0  0  0  0  0999 V2000
  -20.3502    7.1043   -8.7123 O   0  0  0  0  0  0  0  0  0  0  0  0
  -20.7140    5.7901   -9.1022 S   0  0  0  0  0  0  0  0  0  0  0  0
  -21.9973    5.2794   -8.7834 O   0  0  0  0  0  0  0  0  0  0  0  0
  -19.5073    4.6159   -8.7030 C   0  0  0  0  0  0  0  0  0  0  0  0
  -19.4497    4.2934  -10.2856 C   0  0  0  0  0  0  0  0  0  0  0  0
  -20.3361    5.5408  -10.6397 N   0  0  0  0  0  0  0  0  0  0  0  0
  -19.7838    3.7202   -8.1628 H   0  0  0  0  0  0  0  0  0  0  0  0
  -18.5393    4.9548   -8.3566 H   0  0  0  0  0  0  0  0  0  0  0  0
  -19.9403    3.3607  -10.5305 H   0  0  0  0  0  0  0  0  0  0  0  0
  -18.4499    4.3540  -10.6931 H   0  0  0  0  0  0  0  0  0  0  0  0
  -19.7806    6.2540  -11.1042 H   0  0  0  0  0  0  0  0  0  0  0  0
  1  2  2  0
  2  3  2  0
  2  4  1  0
  2  6  1  0
  4  5  1  0
  4  7  1  0
  4  8  1  0
  5  6  1  0
  5  9  1  0
  5 10  1  0
  6 11  1  0
M  END
> <intraLJ>
-0.439    

> <intraEL>
-3.883    

> <intraDihe>
14.792    

> <interLJ>
0.000     

> <interEJ>
0.000     

> <gridLJ>
-2.745    

> <gridEL>
0.000     

> <totalE>
7.725     

> <LGFE>
-2.745  

> <LE>
-0.457  

> <SMILES>
O=S1(=O)CCN1

> <atom.dprop.GFE>
-0.82 0 -0.95 -0.18 -0.14 -0.66 0 0 0 0 0

> <atom.prop.CLASS>
GENA NCLA GENA PRPC PRPC GEND NCLA NCLA NCLA NCLA NCLA

$$$$
75
     RDKit          3D

 11 11  0  0  0  0  0  0  0  0999 V2000
  -21.9236    6.1993   -5.4027 O   0  0  0  0  0  0  0  0  0  0  0  0
  -21.4812    5.7040   -4.1496 S   0  0  0  0  0  0  0  0  0  0  0  0
  -21.9805    4.4749   -3.6501 O   0  0  0  0  0  0  0  0  0  0  0  0
  -21.5334    6.9010   -2.9011 C   0  0  0  0  0  0  0  0  0  0  0  0
  -19.9436    6.6549   -2.7458 C   0  0  0  0  0  0  0  0  0  0  0  0
  -19.8834    5.7844   -4.0519 N   0  0  0  0  0  0  0  0  0  0  0  0
  -22.0251    6.6810   -1.9629 H   0  0  0  0  0  0  0  0  0  0  0  0
  -21.7261    7.9318   -3.1699 H   0  0  0  0  0  0  0  0  0  0  0  0
  -19.7037    6.0808   -1.8606 H   0  0  0  0  0  0  0  0  0  0  0  0
  -19.3660    7.5663   -2.8165 H   0  0  0  0  0  0  0  0  0  0  0  0
  -19.3962    6.2827   -4.7916 H   0  0  0  0  0  0  0  0  0  0  0  0
  1  2  2  0
  2  3  2  0
  2  4  1  0
  2  6  1  0
  4  5  1  0
  4  7  1  0
  4  8  1  0
  5  6  1  0
  5  9  1  0
  5 10  1  0
  6 11  1  0
M  END
> <intraLJ>
-0.439    

> <intraEL>
-3.883    

> <intraDihe>
14.792    

> <interLJ>
0.000     

> <interEJ>
0.000     

> <gridLJ>
-2.757    

> <gridEL>
0.000     

> <totalE>
7.713     

> <LGFE>
-2.757  

> <LE>
-0.459  

> <SMILES>
O=S1(=O)CCN1

> <atom.dprop.GFE>
-0.76 0 -1.2 0.049 -0.064 -0.75 0 0 0 0 0

> <atom.prop.CLASS>
GENA NCLA GENA PRPC PRPC GEND NCLA NCLA NCLA NCLA NCLA

$$$$
75
     RDKit          3D

 11 11  0  0  0  0  0  0  0  0999 V2000
   15.2792    4.1657   -2.6746 O   0  0  0  0  0  0  0  0  0  0  0  0
   16.1919    3.8881   -3.7240 S   0  0  0  0  0  0  0  0  0  0  0  0
   16.9847    2.7136   -3.6899 O   0  0  0  0  0  0  0  0  0  0  0  0
   17.1862    5.2471   -4.1224 C   0  0  0  0  0  0  0  0  0  0  0  0
   16.5606    5.1340   -5.6084 C   0  0  0  0  0  0  0  0  0  0  0  0
   15.4821    4.0896   -5.1468 N   0  0  0  0  0  0  0  0  0  0  0  0
   18.2607    5.1328   -4.1745 H   0  0  0  0  0  0  0  0  0  0  0  0
   16.9523    6.2127   -3.6925 H   0  0  0  0  0  0  0  0  0  0  0  0
   17.2620    4.7118   -6.3158 H   0  0  0  0  0  0  0  0  0  0  0  0
   16.1300    6.0625   -5.9574 H   0  0  0  0  0  0  0  0  0  0  0  0
   14.5555    4.5071   -5.1500 H   0  0  0  0  0  0  0  0  0  0  0  0
  1  2  2  0
  2  3  2  0
  2  4  1  0
  2  6  1  0
  4  5  1  0
  4  7  1  0
  4  8  1  0
  5  6  1  0
  5  9  1  0
  5 10  1  0
  6 11  1  0
M  END
> <intraLJ>
-0.439    

> <intraEL>
-3.883    

> <intraDihe>
14.792    

> <interLJ>
0.000     

> <interEJ>
0.000     

> <gridLJ>
-2.723    

> <gridEL>
0.000     

> <totalE>
7.747     

> <LGFE>
-2.723  

> <LE>
-0.454  

> <SMILES>
O=S1(=O)CCN1

> <atom.dprop.GFE>
-0.36 0 -0.69 -0.42 -0.38 -0.87 0 0 0 0 0

> <atom.prop.CLASS>
GENA NCLA GENA PRPC PRPC GEND NCLA NCLA NCLA NCLA NCLA

$$$$
75
     RDKit          3D

 11 11  0  0  0  0  0  0  0  0999 V2000
  -37.0062    9.1253   14.6021 O   0  0  0  0  0  0  0  0  0  0  0  0
  -35.7451    8.5478   14.8981 S   0  0  0  0  0  0  0  0  0  0  0  0
  -35.1624    8.7210   16.1786 O   0  0  0  0  0  0  0  0  0  0  0  0
  -34.5618    8.8627   13.6755 C   0  0  0  0  0  0  0  0  0  0  0  0
  -34.4513    7.2579   13.5192 C   0  0  0  0  0  0  0  0  0  0  0  0
  -35.7100    7.0162   14.4272 N   0  0  0  0  0  0  0  0  0  0  0  0
  -33.5958    9.2650   13.9503 H   0  0  0  0  0  0  0  0  0  0  0  0
  -34.8784    9.3070   12.7405 H   0  0  0  0  0  0  0  0  0  0  0  0
  -33.5459    6.8657   13.9629 H   0  0  0  0  0  0  0  0  0  0  0  0
  -34.5918    6.9218   12.5010 H   0  0  0  0  0  0  0  0  0  0  0  0
  -36.4927    6.6817   13.8718 H   0  0  0  0  0  0  0  0  0  0  0  0
  1  2  2  0
  2  3  2  0
  2  4  1  0
  2  6  1  0
  4  5  1  0
  4  7  1  0
  4  8  1  0
  5  6  1  0
  5  9  1  0
  5 10  1  0
  6 11  1  0
M  END
> <intraLJ>
-0.439    

> <intraEL>
-3.883    

> <intraDihe>
14.792    

> <interLJ>
0.000     

> <interEJ>
0.000     

> <gridLJ>
-2.708    

> <gridEL>
0.000     

> <totalE>
7.761     

> <LGFE>
-2.708  

> <LE>
-0.451  

> <SMILES>
O=S1(=O)CCN1

> <atom.dprop.GFE>
-0.79 0 -0.65 -0.33 -0.25 -0.69 0 0 0 0 0

> <atom.prop.CLASS>
GENA NCLA GENA PRPC PRPC GEND NCLA NCLA NCLA NCLA NCLA

$$$$
75
     RDKit          3D

 11 11  0  0  0  0  0  0  0  0999 V2000
  -26.2744  -17.7409   11.1850 O   0  0  0  0  0  0  0  0  0  0  0  0
  -26.7381  -16.4892   10.7059 S   0  0  0  0  0  0  0  0  0  0  0  0
  -27.9164  -15.9109   11.2412 O   0  0  0  0  0  0  0  0  0  0  0  0
  -26.7875  -16.4111    8.9780 C   0  0  0  0  0  0  0  0  0  0  0  0
  -25.7651  -15.1666    9.1113 C   0  0  0  0  0  0  0  0  0  0  0  0
  -25.5314  -15.4364   10.6409 N   0  0  0  0  0  0  0  0  0  0  0  0
  -27.6896  -16.0840    8.4782 H   0  0  0  0  0  0  0  0  0  0  0  0
  -26.3320  -17.2074    8.4033 H   0  0  0  0  0  0  0  0  0  0  0  0
  -26.2521  -14.2170    8.9335 H   0  0  0  0  0  0  0  0  0  0  0  0
  -24.8699  -15.2896    8.5172 H   0  0  0  0  0  0  0  0  0  0  0  0
  -24.5934  -15.7928   10.8020 H   0  0  0  0  0  0  0  0  0  0  0  0
  1  2  2  0
  2  3  2  0
  2  4  1  0
  2  6  1  0
  4  5  1  0
  4  7  1  0
  4  8  1  0
  5  6  1  0
  5  9  1  0
  5 10  1  0
  6 11  1  0
M  END
> <intraLJ>
-0.439    

> <intraEL>
-3.883    

> <intraDihe>
14.792    

> <interLJ>
0.000     

> <interEJ>
0.000     

> <gridLJ>
-2.731    

> <gridEL>
0.000     

> <totalE>
7.739     

> <LGFE>
-2.731  

> <LE>
-0.455  

> <SMILES>
O=S1(=O)CCN1

> <atom.dprop.GFE>
-0.88 0 -0.42 -0.18 -0.11 -1.1 0 0 0 0 0

> <atom.prop.CLASS>
GENA NCLA GENA PRPC PRPC GEND NCLA NCLA NCLA NCLA NCLA

$$$$
75
     RDKit          3D

 11 11  0  0  0  0  0  0  0  0999 V2000
   21.9275    7.1872  -30.8659 O   0  0  0  0  0  0  0  0  0  0  0  0
   22.9824    7.8515  -31.5420 S   0  0  0  0  0  0  0  0  0  0  0  0
   23.7100    7.1859  -32.5603 O   0  0  0  0  0  0  0  0  0  0  0  0
   24.0832    8.6330  -30.4595 C   0  0  0  0  0  0  0  0  0  0  0  0
   23.6966   10.0029  -31.2250 C   0  0  0  0  0  0  0  0  0  0  0  0
   22.5159    9.3150  -31.9995 N   0  0  0  0  0  0  0  0  0  0  0  0
   25.1467    8.4571  -30.5514 H   0  0  0  0  0  0  0  0  0  0  0  0
   23.8248    8.7068  -29.4108 H   0  0  0  0  0  0  0  0  0  0  0  0
   24.4829   10.3352  -31.8898 H   0  0  0  0  0  0  0  0  0  0  0  0
   23.3659   10.7834  -30.5535 H   0  0  0  0  0  0  0  0  0  0  0  0
   21.6198    9.6474  -31.6538 H   0  0  0  0  0  0  0  0  0  0  0  0
  1  2  2  0
  2  3  2  0
  2  4  1  0
  2  6  1  0
  4  5  1  0
  4  7  1  0
  4  8  1  0
  5  6  1  0
  5  9  1  0
  5 10  1  0
  6 11  1  0
M  END
> <intraLJ>
-0.439    

> <intraEL>
-3.883    

> <intraDihe>
14.792    

> <interLJ>
0.000     

> <interEJ>
0.000     

> <gridLJ>
-2.594    

> <gridEL>
0.000     

> <totalE>
7.876     

> <LGFE>
-2.594  

> <LE>
-0.432  

> <SMILES>
O=S1(=O)CCN1

> <atom.dprop.GFE>
-0.48 0 -0.92 -0.079 -0.054 -1.1 0 0 0 0 0

> <atom.prop.CLASS>
GENA NCLA GENA PRPC PRPC GEND NCLA NCLA NCLA NCLA NCLA

$$$$
75
     RDKit          3D

 11 11  0  0  0  0  0  0  0  0999 V2000
  -25.4194  -17.7585    8.2732 O   0  0  0  0  0  0  0  0  0  0  0  0
  -26.2414  -17.0797    9.2085 S   0  0  0  0  0  0  0  0  0  0  0  0
  -26.7128  -17.7503   10.3649 O   0  0  0  0  0  0  0  0  0  0  0  0
  -27.5489  -16.2309    8.4573 C   0  0  0  0  0  0  0  0  0  0  0  0
  -26.9272  -14.8974    9.1264 C   0  0  0  0  0  0  0  0  0  0  0  0
  -25.6168  -15.6464    9.5612 N   0  0  0  0  0  0  0  0  0  0  0  0
  -28.5605  -16.3741    8.8132 H   0  0  0  0  0  0  0  0  0  0  0  0
  -27.5620  -16.1351    7.3791 H   0  0  0  0  0  0  0  0  0  0  0  0
  -27.5055  -14.5589    9.9758 H   0  0  0  0  0  0  0  0  0  0  0  0
  -26.7469  -14.1091    8.4085 H   0  0  0  0  0  0  0  0  0  0  0  0
  -24.8252  -15.3339    9.0057 H   0  0  0  0  0  0  0  0  0  0  0  0
  1  2  2  0
  2  3  2  0
  2  4  1  0
  2  6  1  0
  4  5  1  0
  4  7  1  0
  4  8  1  0
  5  6  1  0
  5  9  1  0
  5 10  1  0
  6 11  1  0
M  END
> <intraLJ>
-0.439    

> <intraEL>
-3.883    

> <intraDihe>
14.792    

> <interLJ>
0.000     

> <interEJ>
0.000     

> <gridLJ>
-2.634    

> <gridEL>
0.000     

> <totalE>
7.836     

> <LGFE>
-2.634  

> <LE>
-0.439  

> <SMILES>
O=S1(=O)CCN1

> <atom.dprop.GFE>
-0.55 0 -0.88 -0.11 -0.17 -0.92 0 0 0 0 0

> <atom.prop.CLASS>
GENA NCLA GENA PRPC PRPC GEND NCLA NCLA NCLA NCLA NCLA

$$$$
75
     RDKit          3D

 11 11  0  0  0  0  0  0  0  0999 V2000
  -14.2956    6.7287  -16.9771 O   0  0  0  0  0  0  0  0  0  0  0  0
  -13.4936    6.4982  -18.1238 S   0  0  0  0  0  0  0  0  0  0  0  0
  -13.0959    5.1811  -18.4651 O   0  0  0  0  0  0  0  0  0  0  0  0
  -12.1270    7.5563  -18.2078 C   0  0  0  0  0  0  0  0  0  0  0  0
  -12.7333    8.0536  -19.6211 C   0  0  0  0  0  0  0  0  0  0  0  0
  -14.0855    7.2901  -19.3853 N   0  0  0  0  0  0  0  0  0  0  0  0
  -11.1373    7.1482  -18.3643 H   0  0  0  0  0  0  0  0  0  0  0  0
  -12.0632    8.3873  -17.5170 H   0  0  0  0  0  0  0  0  0  0  0  0
  -12.1821    7.6580  -20.4639 H   0  0  0  0  0  0  0  0  0  0  0  0
  -12.8557    9.1267  -19.6743 H   0  0  0  0  0  0  0  0  0  0  0  0
  -14.8412    7.9467  -19.2102 H   0  0  0  0  0  0  0  0  0  0  0  0
  1  2  2  0
  2  3  2  0
  2  4  1  0
  2  6  1  0
  4  5  1  0
  4  7  1  0
  4  8  1  0
  5  6  1  0
  5  9  1  0
  5 10  1  0
  6 11  1  0
M  END
> <intraLJ>
-0.439    

> <intraEL>
-3.883    

> <intraDihe>
14.792    

> <interLJ>
0.000     

> <interEJ>
0.000     

> <gridLJ>
-2.532    

> <gridEL>
0.000     

> <totalE>
7.938     

> <LGFE>
-2.532  

> <LE>
-0.422  

> <SMILES>
O=S1(=O)CCN1

> <atom.dprop.GFE>
-1.1 0 -0.91 -0.12 -0.029 -0.42 0 0 0 0 0

> <atom.prop.CLASS>
GENA NCLA GENA PRPC PRPC GEND NCLA NCLA NCLA NCLA NCLA

$$$$
75
     RDKit          3D

 11 11  0  0  0  0  0  0  0  0999 V2000
    1.9217   -1.8627  -11.0705 O   0  0  0  0  0  0  0  0  0  0  0  0
    2.8134   -2.2111  -10.0241 S   0  0  0  0  0  0  0  0  0  0  0  0
    4.1298   -1.6859  -10.0023 O   0  0  0  0  0  0  0  0  0  0  0  0
    2.8642   -3.9152   -9.7283 C   0  0  0  0  0  0  0  0  0  0  0  0
    2.3837   -3.5611   -8.2264 C   0  0  0  0  0  0  0  0  0  0  0  0
    2.0876   -2.0651   -8.6026 N   0  0  0  0  0  0  0  0  0  0  0  0
    3.8160   -4.4282   -9.6903 H   0  0  0  0  0  0  0  0  0  0  0  0
    2.1357   -4.5538  -10.2114 H   0  0  0  0  0  0  0  0  0  0  0  0
    3.1882   -3.6504   -7.5084 H   0  0  0  0  0  0  0  0  0  0  0  0
    1.4994   -4.1061   -7.9260 H   0  0  0  0  0  0  0  0  0  0  0  0
    1.0867   -1.8888   -8.6067 H   0  0  0  0  0  0  0  0  0  0  0  0
  1  2  2  0
  2  3  2  0
  2  4  1  0
  2  6  1  0
  4  5  1  0
  4  7  1  0
  4  8  1  0
  5  6  1  0
  5  9  1  0
  5 10  1  0
  6 11  1  0
M  END
> <intraLJ>
-0.439    

> <intraEL>
-3.883    

> <intraDihe>
14.792    

> <interLJ>
0.000     

> <interEJ>
0.000     

> <gridLJ>
-2.541    

> <gridEL>
0.000     

> <totalE>
7.929     

> <LGFE>
-2.541  

> <LE>
-0.423  

> <SMILES>
O=S1(=O)CCN1

> <atom.dprop.GFE>
-0.6 0 -0.78 -0.17 -0.18 -0.82 0 0 0 0 0

> <atom.prop.CLASS>
GENA NCLA GENA PRPC PRPC GEND NCLA NCLA NCLA NCLA NCLA

$$$$
75
     RDKit          3D

 11 11  0  0  0  0  0  0  0  0999 V2000
  -16.5143    9.2688   -7.6134 O   0  0  0  0  0  0  0  0  0  0  0  0
  -17.8598    9.5610   -7.9532 S   0  0  0  0  0  0  0  0  0  0  0  0
  -18.9171    9.1517   -7.1024 O   0  0  0  0  0  0  0  0  0  0  0  0
  -18.2407    9.1492   -9.5902 C   0  0  0  0  0  0  0  0  0  0  0  0
  -18.6105   10.7104   -9.7848 C   0  0  0  0  0  0  0  0  0  0  0  0
  -18.0030   11.0968   -8.3887 N   0  0  0  0  0  0  0  0  0  0  0  0
  -19.1110    8.5435   -9.8058 H   0  0  0  0  0  0  0  0  0  0  0  0
  -17.4387    8.8700  -10.2615 H   0  0  0  0  0  0  0  0  0  0  0  0
  -19.6791   10.8752   -9.8252 H   0  0  0  0  0  0  0  0  0  0  0  0
  -18.0901   11.1677  -10.6151 H   0  0  0  0  0  0  0  0  0  0  0  0
  -17.1454   11.6292   -8.5069 H   0  0  0  0  0  0  0  0  0  0  0  0
  1  2  2  0
  2  3  2  0
  2  4  1  0
  2  6  1  0
  4  5  1  0
  4  7  1  0
  4  8  1  0
  5  6  1  0
  5  9  1  0
  5 10  1  0
  6 11  1  0
M  END
> <intraLJ>
-0.439    

> <intraEL>
-3.883    

> <intraDihe>
14.792    

> <interLJ>
0.000     

> <interEJ>
0.000     

> <gridLJ>
-2.564    

> <gridEL>
0.000     

> <totalE>
7.906     

> <LGFE>
-2.564  

> <LE>
-0.427  

> <SMILES>
O=S1(=O)CCN1

> <atom.dprop.GFE>
-1.1 0 -0.69 -0.052 -0.11 -0.57 0 0 0 0 0

> <atom.prop.CLASS>
GENA NCLA GENA PRPC PRPC GEND NCLA NCLA NCLA NCLA NCLA

$$$$
75
     RDKit          3D

 11 11  0  0  0  0  0  0  0  0999 V2000
   -4.5117   10.4788    6.2786 O   0  0  0  0  0  0  0  0  0  0  0  0
   -5.3094   11.4998    5.7019 S   0  0  0  0  0  0  0  0  0  0  0  0
   -4.9342   12.0893    4.4686 O   0  0  0  0  0  0  0  0  0  0  0  0
   -5.7287   12.7401    6.8333 C   0  0  0  0  0  0  0  0  0  0  0  0
   -7.2675   12.3590    6.5185 C   0  0  0  0  0  0  0  0  0  0  0  0
   -6.8544   11.0737    5.7157 N   0  0  0  0  0  0  0  0  0  0  0  0
   -5.5568   13.7787    6.5837 H   0  0  0  0  0  0  0  0  0  0  0  0
   -5.5145   12.5871    7.8833 H   0  0  0  0  0  0  0  0  0  0  0  0
   -7.7504   13.0957    5.8902 H   0  0  0  0  0  0  0  0  0  0  0  0
   -7.8387   12.1374    7.4095 H   0  0  0  0  0  0  0  0  0  0  0  0
   -7.1014   10.2343    6.2328 H   0  0  0  0  0  0  0  0  0  0  0  0
  1  2  2  0
  2  3  2  0
  2  4  1  0
  2  6  1  0
  4  5  1  0
  4  7  1  0
  4  8  1  0
  5  6  1  0
  5  9  1  0
  5 10  1  0
  6 11  1  0
M  END
> <intraLJ>
-0.439    

> <intraEL>
-3.883    

> <intraDihe>
14.792    

> <interLJ>
0.000     

> <interEJ>
0.000     

> <gridLJ>
-2.542    

> <gridEL>
0.000     

> <totalE>
7.928     

> <LGFE>
-2.542  

> <LE>
-0.424  

> <SMILES>
O=S1(=O)CCN1

> <atom.dprop.GFE>
-1.1 0 -0.94 0.11 0.086 -0.65 0 0 0 0 0

> <atom.prop.CLASS>
GENA NCLA GENA PRPC PRPC GEND NCLA NCLA NCLA NCLA NCLA

$$$$
75
     RDKit          3D

 11 11  0  0  0  0  0  0  0  0999 V2000
    8.9037   -4.3676  -15.7312 O   0  0  0  0  0  0  0  0  0  0  0  0
    9.7717   -5.3465  -15.1839 S   0  0  0  0  0  0  0  0  0  0  0  0
    9.5121   -6.7253  -15.3861 O   0  0  0  0  0  0  0  0  0  0  0  0
   10.1318   -5.0632  -13.5153 C   0  0  0  0  0  0  0  0  0  0  0  0
   11.6802   -4.9877  -13.9723 C   0  0  0  0  0  0  0  0  0  0  0  0
   11.2988   -4.9734  -15.4960 N   0  0  0  0  0  0  0  0  0  0  0  0
   10.0080   -5.8597  -12.7937 H   0  0  0  0  0  0  0  0  0  0  0  0
    9.8304   -4.1261  -13.0649 H   0  0  0  0  0  0  0  0  0  0  0  0
   12.2312   -5.8772  -13.6972 H   0  0  0  0  0  0  0  0  0  0  0  0
   12.1723   -4.0804  -13.6497 H   0  0  0  0  0  0  0  0  0  0  0  0
   11.4814   -4.0597  -15.9018 H   0  0  0  0  0  0  0  0  0  0  0  0
  1  2  2  0
  2  3  2  0
  2  4  1  0
  2  6  1  0
  4  5  1  0
  4  7  1  0
  4  8  1  0
  5  6  1  0
  5  9  1  0
  5 10  1  0
  6 11  1  0
M  END
> <intraLJ>
-0.439    

> <intraEL>
-3.883    

> <intraDihe>
14.792    

> <interLJ>
0.000     

> <interEJ>
0.000     

> <gridLJ>
-2.469    

> <gridEL>
0.000     

> <totalE>
8.001     

> <LGFE>
-2.469  

> <LE>
-0.412  

> <SMILES>
O=S1(=O)CCN1

> <atom.dprop.GFE>
-0.9 0 -0.26 -0.3 -0.3 -0.7 0 0 0 0 0

> <atom.prop.CLASS>
GENA NCLA GENA PRPC PRPC GEND NCLA NCLA NCLA NCLA NCLA

$$$$
75
     RDKit          3D

 11 11  0  0  0  0  0  0  0  0999 V2000
  -29.3315   17.0983   25.0368 O   0  0  0  0  0  0  0  0  0  0  0  0
  -29.6478   16.2521   26.1300 S   0  0  0  0  0  0  0  0  0  0  0  0
  -29.0725   14.9599   26.2237 O   0  0  0  0  0  0  0  0  0  0  0  0
  -31.3495   16.1518   26.4276 C   0  0  0  0  0  0  0  0  0  0  0  0
  -31.0178   16.7265   27.9013 C   0  0  0  0  0  0  0  0  0  0  0  0
  -29.5334   17.0591   27.5100 N   0  0  0  0  0  0  0  0  0  0  0  0
  -31.8256   15.1844   26.5172 H   0  0  0  0  0  0  0  0  0  0  0  0
  -32.0145   16.8277   25.9053 H   0  0  0  0  0  0  0  0  0  0  0  0
  -31.0778   15.9594   28.6619 H   0  0  0  0  0  0  0  0  0  0  0  0
  -31.5971   17.6042   28.1529 H   0  0  0  0  0  0  0  0  0  0  0  0
  -29.3957   18.0644   27.4515 H   0  0  0  0  0  0  0  0  0  0  0  0
  1  2  2  0
  2  3  2  0
  2  4  1  0
  2  6  1  0
  4  5  1  0
  4  7  1  0
  4  8  1  0
  5  6  1  0
  5  9  1  0
  5 10  1  0
  6 11  1  0
M  END
> <intraLJ>
-0.439    

> <intraEL>
-3.883    

> <intraDihe>
14.792    

> <interLJ>
0.000     

> <interEJ>
0.000     

> <gridLJ>
-2.438    

> <gridEL>
0.000     

> <totalE>
8.031     

> <LGFE>
-2.438  

> <LE>
-0.406  

> <SMILES>
O=S1(=O)CCN1

> <atom.dprop.GFE>
-0.38 0 -1 -0.28 -0.31 -0.46 0 0 0 0 0

> <atom.prop.CLASS>
GENA NCLA GENA PRPC PRPC GEND NCLA NCLA NCLA NCLA NCLA

$$$$
75
     RDKit          3D

 11 11  0  0  0  0  0  0  0  0999 V2000
   -2.0630   12.8869    9.2064 O   0  0  0  0  0  0  0  0  0  0  0  0
   -0.7065   12.6246    8.8865 S   0  0  0  0  0  0  0  0  0  0  0  0
   -0.1156   11.3852    9.2387 O   0  0  0  0  0  0  0  0  0  0  0  0
    0.3494   13.9191    9.3380 C   0  0  0  0  0  0  0  0  0  0  0  0
    0.7476   13.9981    7.7736 C   0  0  0  0  0  0  0  0  0  0  0  0
   -0.4081   13.0175    7.3616 N   0  0  0  0  0  0  0  0  0  0  0  0
    1.2348   13.7136    9.9249 H   0  0  0  0  0  0  0  0  0  0  0  0
   -0.0803   14.8588    9.6608 H   0  0  0  0  0  0  0  0  0  0  0  0
    1.7266   13.5804    7.5797 H   0  0  0  0  0  0  0  0  0  0  0  0
    0.6314   14.9894    7.3575 H   0  0  0  0  0  0  0  0  0  0  0  0
   -1.1371   13.5154    6.8578 H   0  0  0  0  0  0  0  0  0  0  0  0
  1  2  2  0
  2  3  2  0
  2  4  1  0
  2  6  1  0
  4  5  1  0
  4  7  1  0
  4  8  1  0
  5  6  1  0
  5  9  1  0
  5 10  1  0
  6 11  1  0
M  END
> <intraLJ>
-0.439    

> <intraEL>
-3.883    

> <intraDihe>
14.792    

> <interLJ>
0.000     

> <interEJ>
0.000     

> <gridLJ>
-2.388    

> <gridEL>
0.000     

> <totalE>
8.082     

> <LGFE>
-2.388  

> <LE>
-0.398  

> <SMILES>
O=S1(=O)CCN1

> <atom.dprop.GFE>
-0.44 0 -0.52 -0.33 -0.32 -0.79 0 0 0 0 0

> <atom.prop.CLASS>
GENA NCLA GENA PRPC PRPC GEND NCLA NCLA NCLA NCLA NCLA

$$$$
75
     RDKit          3D

 11 11  0  0  0  0  0  0  0  0999 V2000
  -22.3825   -9.7640   27.3569 O   0  0  0  0  0  0  0  0  0  0  0  0
  -21.8074   -8.4725   27.2455 S   0  0  0  0  0  0  0  0  0  0  0  0
  -21.0952   -7.9107   28.3348 O   0  0  0  0  0  0  0  0  0  0  0  0
  -22.9110   -7.3016   26.6089 C   0  0  0  0  0  0  0  0  0  0  0  0
  -21.8370   -7.0928   25.4194 C   0  0  0  0  0  0  0  0  0  0  0  0
  -20.9964   -8.3410   25.8693 N   0  0  0  0  0  0  0  0  0  0  0  0
  -23.0610   -6.3638   27.1272 H   0  0  0  0  0  0  0  0  0  0  0  0
  -23.8563   -7.6377   26.2024 H   0  0  0  0  0  0  0  0  0  0  0  0
  -21.2847   -6.1684   25.5252 H   0  0  0  0  0  0  0  0  0  0  0  0
  -22.2698   -7.2052   24.4348 H   0  0  0  0  0  0  0  0  0  0  0  0
  -21.0928   -9.0979   25.1979 H   0  0  0  0  0  0  0  0  0  0  0  0
  1  2  2  0
  2  3  2  0
  2  4  1  0
  2  6  1  0
  4  5  1  0
  4  7  1  0
  4  8  1  0
  5  6  1  0
  5  9  1  0
  5 10  1  0
  6 11  1  0
M  END
> <intraLJ>
-0.439    

> <intraEL>
-3.883    

> <intraDihe>
14.792    

> <interLJ>
0.000     

> <interEJ>
0.000     

> <gridLJ>
-2.381    

> <gridEL>
0.000     

> <totalE>
8.088     

> <LGFE>
-2.381  

> <LE>
-0.397  

> <SMILES>
O=S1(=O)CCN1

> <atom.dprop.GFE>
-0.65 0 -0.81 -0.25 -0.25 -0.42 0 0 0 0 0

> <atom.prop.CLASS>
GENA NCLA GENA PRPC PRPC GEND NCLA NCLA NCLA NCLA NCLA

$$$$
75
     RDKit          3D

 11 11  0  0  0  0  0  0  0  0999 V2000
   24.2292   11.7589   -1.6530 O   0  0  0  0  0  0  0  0  0  0  0  0
   22.9564   12.1423   -1.1587 S   0  0  0  0  0  0  0  0  0  0  0  0
   22.3277   13.3185   -1.6390 O   0  0  0  0  0  0  0  0  0  0  0  0
   22.8705   12.1035    0.5691 C   0  0  0  0  0  0  0  0  0  0  0  0
   21.6734   11.0343    0.3792 C   0  0  0  0  0  0  0  0  0  0  0  0
   21.9585   10.8882   -1.1585 N   0  0  0  0  0  0  0  0  0  0  0  0
   22.5017   12.9645    1.1105 H   0  0  0  0  0  0  0  0  0  0  0  0
   23.6845   11.6562    1.1252 H   0  0  0  0  0  0  0  0  0  0  0  0
   20.7024   11.4692    0.5754 H   0  0  0  0  0  0  0  0  0  0  0  0
   21.8345   10.1175    0.9296 H   0  0  0  0  0  0  0  0  0  0  0  0
   22.3570    9.9759   -1.3632 H   0  0  0  0  0  0  0  0  0  0  0  0
  1  2  2  0
  2  3  2  0
  2  4  1  0
  2  6  1  0
  4  5  1  0
  4  7  1  0
  4  8  1  0
  5  6  1  0
  5  9  1  0
  5 10  1  0
  6 11  1  0
M  END
> <intraLJ>
-0.439    

> <intraEL>
-3.883    

> <intraDihe>
14.792    

> <interLJ>
0.000     

> <interEJ>
0.000     

> <gridLJ>
-2.365    

> <gridEL>
0.000     

> <totalE>
8.105     

> <LGFE>
-2.365  

> <LE>
-0.394  

> <SMILES>
O=S1(=O)CCN1

> <atom.dprop.GFE>
-0.68 0 -0.67 -0.2 -0.29 -0.52 0 0 0 0 0

> <atom.prop.CLASS>
GENA NCLA GENA PRPC PRPC GEND NCLA NCLA NCLA NCLA NCLA

$$$$
75
     RDKit          3D

 11 11  0  0  0  0  0  0  0  0999 V2000
   -7.3401   -9.6577    2.6353 O   0  0  0  0  0  0  0  0  0  0  0  0
   -7.9242  -10.9483    2.5696 S   0  0  0  0  0  0  0  0  0  0  0  0
   -7.1653  -12.0540    2.1103 O   0  0  0  0  0  0  0  0  0  0  0  0
   -9.4704  -10.9438    1.7926 C   0  0  0  0  0  0  0  0  0  0  0  0
  -10.0494  -11.5426    3.1776 C   0  0  0  0  0  0  0  0  0  0  0  0
   -8.6980  -11.2793    3.9336 N   0  0  0  0  0  0  0  0  0  0  0  0
   -9.6720  -11.6385    0.9880 H   0  0  0  0  0  0  0  0  0  0  0  0
   -9.9433   -9.9959    1.5701 H   0  0  0  0  0  0  0  0  0  0  0  0
  -10.2772  -12.5976    3.1030 H   0  0  0  0  0  0  0  0  0  0  0  0
  -10.8758  -10.9683    3.5735 H   0  0  0  0  0  0  0  0  0  0  0  0
   -8.8046  -10.5228    4.6039 H   0  0  0  0  0  0  0  0  0  0  0  0
  1  2  2  0
  2  3  2  0
  2  4  1  0
  2  6  1  0
  4  5  1  0
  4  7  1  0
  4  8  1  0
  5  6  1  0
  5  9  1  0
  5 10  1  0
  6 11  1  0
M  END
> <intraLJ>
-0.439    

> <intraEL>
-3.883    

> <intraDihe>
14.792    

> <interLJ>
0.000     

> <interEJ>
0.000     

> <gridLJ>
-2.373    

> <gridEL>
0.000     

> <totalE>
8.097     

> <LGFE>
-2.373  

> <LE>
-0.396  

> <SMILES>
O=S1(=O)CCN1

> <atom.dprop.GFE>
-1 0 -0.73 -0.1 -0.15 -0.37 0 0 0 0 0

> <atom.prop.CLASS>
GENA NCLA GENA PRPC PRPC GEND NCLA NCLA NCLA NCLA NCLA

$$$$
75
     RDKit          3D

 11 11  0  0  0  0  0  0  0  0999 V2000
  -39.3824   -5.3482   24.5350 O   0  0  0  0  0  0  0  0  0  0  0  0
  -39.3289   -4.1684   25.3202 S   0  0  0  0  0  0  0  0  0  0  0  0
  -38.2281   -3.9322   26.1815 O   0  0  0  0  0  0  0  0  0  0  0  0
  -40.8052   -3.8628   26.1695 C   0  0  0  0  0  0  0  0  0  0  0  0
  -40.8530   -2.4614   25.3659 C   0  0  0  0  0  0  0  0  0  0  0  0
  -39.6715   -2.8859   24.4221 N   0  0  0  0  0  0  0  0  0  0  0  0
  -40.7852   -3.6673   27.2334 H   0  0  0  0  0  0  0  0  0  0  0  0
  -41.6789   -4.4570   25.9340 H   0  0  0  0  0  0  0  0  0  0  0  0
  -40.5918   -1.6207   25.9949 H   0  0  0  0  0  0  0  0  0  0  0  0
  -41.7841   -2.3087   24.8376 H   0  0  0  0  0  0  0  0  0  0  0  0
  -40.0102   -3.0550   23.4789 H   0  0  0  0  0  0  0  0  0  0  0  0
  1  2  2  0
  2  3  2  0
  2  4  1  0
  2  6  1  0
  4  5  1  0
  4  7  1  0
  4  8  1  0
  5  6  1  0
  5  9  1  0
  5 10  1  0
  6 11  1  0
M  END
> <intraLJ>
-0.439    

> <intraEL>
-3.883    

> <intraDihe>
14.792    

> <interLJ>
0.000     

> <interEJ>
0.000     

> <gridLJ>
-2.338    

> <gridEL>
0.000     

> <totalE>
8.132     

> <LGFE>
-2.338  

> <LE>
-0.390  

> <SMILES>
O=S1(=O)CCN1

> <atom.dprop.GFE>
-0.5 0 -0.57 -0.31 -0.38 -0.58 0 0 0 0 0

> <atom.prop.CLASS>
GENA NCLA GENA PRPC PRPC GEND NCLA NCLA NCLA NCLA NCLA

$$$$
75
     RDKit          3D

 11 11  0  0  0  0  0  0  0  0999 V2000
    0.0124    3.9756  -33.7030 O   0  0  0  0  0  0  0  0  0  0  0  0
    0.9997    4.6995  -34.4188 S   0  0  0  0  0  0  0  0  0  0  0  0
    0.9691    6.1165  -34.4444 O   0  0  0  0  0  0  0  0  0  0  0  0
    1.2400    4.0960  -36.0227 C   0  0  0  0  0  0  0  0  0  0  0  0
    2.7752    3.8451  -35.5838 C   0  0  0  0  0  0  0  0  0  0  0  0
    2.4609    4.1390  -34.0731 N   0  0  0  0  0  0  0  0  0  0  0  0
    1.2127    4.7750  -36.8645 H   0  0  0  0  0  0  0  0  0  0  0  0
    0.7761    3.1599  -36.3063 H   0  0  0  0  0  0  0  0  0  0  0  0
    3.4471    4.5773  -36.0114 H   0  0  0  0  0  0  0  0  0  0  0  0
    3.1043    2.8300  -35.7589 H   0  0  0  0  0  0  0  0  0  0  0  0
    2.5144    3.2854  -33.5241 H   0  0  0  0  0  0  0  0  0  0  0  0
  1  2  2  0
  2  3  2  0
  2  4  1  0
  2  6  1  0
  4  5  1  0
  4  7  1  0
  4  8  1  0
  5  6  1  0
  5  9  1  0
  5 10  1  0
  6 11  1  0
M  END
> <intraLJ>
-0.439    

> <intraEL>
-3.883    

> <intraDihe>
14.792    

> <interLJ>
0.000     

> <interEJ>
0.000     

> <gridLJ>
-2.316    

> <gridEL>
0.000     

> <totalE>
8.154     

> <LGFE>
-2.316  

> <LE>
-0.386  

> <SMILES>
O=S1(=O)CCN1

> <atom.dprop.GFE>
-0.42 0 -0.79 -0.2 -0.18 -0.74 0 0 0 0 0

> <atom.prop.CLASS>
GENA NCLA GENA PRPC PRPC GEND NCLA NCLA NCLA NCLA NCLA

$$$$
75
     RDKit          3D

 11 11  0  0  0  0  0  0  0  0999 V2000
  -26.0463  -13.9898   22.5282 O   0  0  0  0  0  0  0  0  0  0  0  0
  -25.3889  -15.2353   22.6953 S   0  0  0  0  0  0  0  0  0  0  0  0
  -26.0718  -16.4467   22.4202 O   0  0  0  0  0  0  0  0  0  0  0  0
  -24.5733  -15.3623   24.2161 C   0  0  0  0  0  0  0  0  0  0  0  0
  -23.2248  -15.5851   23.3535 C   0  0  0  0  0  0  0  0  0  0  0  0
  -23.9404  -15.1965   22.0104 N   0  0  0  0  0  0  0  0  0  0  0  0
  -24.7423  -16.2234   24.8489 H   0  0  0  0  0  0  0  0  0  0  0  0
  -24.4775  -14.4798   24.8357 H   0  0  0  0  0  0  0  0  0  0  0  0
  -22.9014  -16.6176   23.3605 H   0  0  0  0  0  0  0  0  0  0  0  0
  -22.4318  -14.9018   23.6249 H   0  0  0  0  0  0  0  0  0  0  0  0
  -23.6077  -14.2965   21.6753 H   0  0  0  0  0  0  0  0  0  0  0  0
  1  2  2  0
  2  3  2  0
  2  4  1  0
  2  6  1  0
  4  5  1  0
  4  7  1  0
  4  8  1  0
  5  6  1  0
  5  9  1  0
  5 10  1  0
  6 11  1  0
M  END
> <intraLJ>
-0.439    

> <intraEL>
-3.883    

> <intraDihe>
14.792    

> <interLJ>
0.000     

> <interEJ>
0.000     

> <gridLJ>
-2.330    

> <gridEL>
0.000     

> <totalE>
8.139     

> <LGFE>
-2.330  

> <LE>
-0.388  

> <SMILES>
O=S1(=O)CCN1

> <atom.dprop.GFE>
-0.62 0 -0.43 -0.26 -0.29 -0.72 0 0 0 0 0

> <atom.prop.CLASS>
GENA NCLA GENA PRPC PRPC GEND NCLA NCLA NCLA NCLA NCLA

$$$$
75
     RDKit          3D

 11 11  0  0  0  0  0  0  0  0999 V2000
   21.8644   -3.8211  -13.0606 O   0  0  0  0  0  0  0  0  0  0  0  0
   21.4006   -2.9645  -12.0299 S   0  0  0  0  0  0  0  0  0  0  0  0
   22.2006   -1.8816  -11.5863 O   0  0  0  0  0  0  0  0  0  0  0  0
   20.7903   -3.8324  -10.6630 C   0  0  0  0  0  0  0  0  0  0  0  0
   19.3922   -3.0692  -10.9369 C   0  0  0  0  0  0  0  0  0  0  0  0
   19.8901   -2.5130  -12.3189 N   0  0  0  0  0  0  0  0  0  0  0  0
   21.1434   -3.5912   -9.6691 H   0  0  0  0  0  0  0  0  0  0  0  0
   20.6514   -4.9032  -10.7403 H   0  0  0  0  0  0  0  0  0  0  0  0
   19.2106   -2.2795  -10.2200 H   0  0  0  0  0  0  0  0  0  0  0  0
   18.5529   -3.7449  -11.0290 H   0  0  0  0  0  0  0  0  0  0  0  0
   19.4052   -2.9724  -13.0849 H   0  0  0  0  0  0  0  0  0  0  0  0
  1  2  2  0
  2  3  2  0
  2  4  1  0
  2  6  1  0
  4  5  1  0
  4  7  1  0
  4  8  1  0
  5  6  1  0
  5  9  1  0
  5 10  1  0
  6 11  1  0
M  END
> <intraLJ>
-0.439    

> <intraEL>
-3.883    

> <intraDihe>
14.792    

> <interLJ>
0.000     

> <interEJ>
0.000     

> <gridLJ>
-2.318    

> <gridEL>
0.000     

> <totalE>
8.152     

> <LGFE>
-2.318  

> <LE>
-0.386  

> <SMILES>
O=S1(=O)CCN1

> <atom.dprop.GFE>
-0.5 0 -0.34 -0.35 -0.31 -0.82 0 0 0 0 0

> <atom.prop.CLASS>
GENA NCLA GENA PRPC PRPC GEND NCLA NCLA NCLA NCLA NCLA

$$$$
75
     RDKit          3D

 11 11  0  0  0  0  0  0  0  0999 V2000
   24.0633   16.6355   -8.5784 O   0  0  0  0  0  0  0  0  0  0  0  0
   24.6465   15.4500   -8.0629 S   0  0  0  0  0  0  0  0  0  0  0  0
   24.7298   15.2446   -6.6628 O   0  0  0  0  0  0  0  0  0  0  0  0
   26.1709   15.0819   -8.7943 C   0  0  0  0  0  0  0  0  0  0  0  0
   25.4934   13.6884   -9.2539 C   0  0  0  0  0  0  0  0  0  0  0  0
   24.0607   14.1658   -8.8219 N   0  0  0  0  0  0  0  0  0  0  0  0
   27.0320   14.8757   -8.1726 H   0  0  0  0  0  0  0  0  0  0  0  0
   26.4867   15.6465   -9.6623 H   0  0  0  0  0  0  0  0  0  0  0  0
   25.8405   12.8510   -8.6632 H   0  0  0  0  0  0  0  0  0  0  0  0
   25.5779   13.5077  -10.3167 H   0  0  0  0  0  0  0  0  0  0  0  0
   23.4782   14.3326   -9.6379 H   0  0  0  0  0  0  0  0  0  0  0  0
  1  2  2  0
  2  3  2  0
  2  4  1  0
  2  6  1  0
  4  5  1  0
  4  7  1  0
  4  8  1  0
  5  6  1  0
  5  9  1  0
  5 10  1  0
  6 11  1  0
M  END
> <intraLJ>
-0.439    

> <intraEL>
-3.883    

> <intraDihe>
14.792    

> <interLJ>
0.000     

> <interEJ>
0.000     

> <gridLJ>
-2.302    

> <gridEL>
0.000     

> <totalE>
8.168     

> <LGFE>
-2.302  

> <LE>
-0.384  

> <SMILES>
O=S1(=O)CCN1

> <atom.dprop.GFE>
-0.6 0 -0.76 -0.15 -0.24 -0.56 0 0 0 0 0

> <atom.prop.CLASS>
GENA NCLA GENA PRPC PRPC GEND NCLA NCLA NCLA NCLA NCLA

$$$$
75
     RDKit          3D

 11 11  0  0  0  0  0  0  0  0999 V2000
   12.8521    4.6599    5.1168 O   0  0  0  0  0  0  0  0  0  0  0  0
   12.8152    5.9204    4.4678 S   0  0  0  0  0  0  0  0  0  0  0  0
   11.9397    6.1359    3.3739 O   0  0  0  0  0  0  0  0  0  0  0  0
   14.3913    6.5168    4.0749 C   0  0  0  0  0  0  0  0  0  0  0  0
   14.0231    7.7907    4.9988 C   0  0  0  0  0  0  0  0  0  0  0  0
   12.7237    7.1005    5.5485 N   0  0  0  0  0  0  0  0  0  0  0  0
   14.6063    6.8518    3.0689 H   0  0  0  0  0  0  0  0  0  0  0  0
   15.2596    6.0070    4.4725 H   0  0  0  0  0  0  0  0  0  0  0  0
   13.8006    8.6712    4.4106 H   0  0  0  0  0  0  0  0  0  0  0  0
   14.7593    7.9823    5.7674 H   0  0  0  0  0  0  0  0  0  0  0  0
   12.8396    6.8468    6.5259 H   0  0  0  0  0  0  0  0  0  0  0  0
  1  2  2  0
  2  3  2  0
  2  4  1  0
  2  6  1  0
  4  5  1  0
  4  7  1  0
  4  8  1  0
  5  6  1  0
  5  9  1  0
  5 10  1  0
  6 11  1  0
M  END
> <intraLJ>
-0.439    

> <intraEL>
-3.883    

> <intraDihe>
14.792    

> <interLJ>
0.000     

> <interEJ>
0.000     

> <gridLJ>
-2.303    

> <gridEL>
0.000     

> <totalE>
8.167     

> <LGFE>
-2.303  

> <LE>
-0.384  

> <SMILES>
O=S1(=O)CCN1

> <atom.dprop.GFE>
-0.71 0 -0.86 0.017 -0.098 -0.65 0 0 0 0 0

> <atom.prop.CLASS>
GENA NCLA GENA PRPC PRPC GEND NCLA NCLA NCLA NCLA NCLA

$$$$
75
     RDKit          3D

 11 11  0  0  0  0  0  0  0  0999 V2000
   16.8424   18.1263   -4.9687 O   0  0  0  0  0  0  0  0  0  0  0  0
   16.6589   16.7232   -4.8742 S   0  0  0  0  0  0  0  0  0  0  0  0
   16.2176   16.1402   -3.6598 O   0  0  0  0  0  0  0  0  0  0  0  0
   18.0065   15.8295   -5.4901 C   0  0  0  0  0  0  0  0  0  0  0  0
   16.9583   15.1698   -6.5284 C   0  0  0  0  0  0  0  0  0  0  0  0
   15.8263   16.1847   -6.1334 N   0  0  0  0  0  0  0  0  0  0  0  0
   18.4571   15.0504   -4.8897 H   0  0  0  0  0  0  0  0  0  0  0  0
   18.7834   16.3563   -6.0294 H   0  0  0  0  0  0  0  0  0  0  0  0
   16.7056   14.1520   -6.2625 H   0  0  0  0  0  0  0  0  0  0  0  0
   17.2700   15.2624   -7.5597 H   0  0  0  0  0  0  0  0  0  0  0  0
   15.6526   16.8393   -6.8912 H   0  0  0  0  0  0  0  0  0  0  0  0
  1  2  2  0
  2  3  2  0
  2  4  1  0
  2  6  1  0
  4  5  1  0
  4  7  1  0
  4  8  1  0
  5  6  1  0
  5  9  1  0
  5 10  1  0
  6 11  1  0
M  END
> <intraLJ>
-0.439    

> <intraEL>
-3.883    

> <intraDihe>
14.792    

> <interLJ>
0.000     

> <interEJ>
0.000     

> <gridLJ>
-2.306    

> <gridEL>
0.000     

> <totalE>
8.164     

> <LGFE>
-2.306  

> <LE>
-0.384  

> <SMILES>
O=S1(=O)CCN1

> <atom.dprop.GFE>
-0.44 0 -0.61 -0.59 -0.11 -0.55 0 0 0 0 0

> <atom.prop.CLASS>
GENA NCLA GENA PRPC PRPC GEND NCLA NCLA NCLA NCLA NCLA

$$$$
75
     RDKit          3D

 11 11  0  0  0  0  0  0  0  0999 V2000
   17.0251   -4.8462  -18.6650 O   0  0  0  0  0  0  0  0  0  0  0  0
   17.6031   -4.2175  -19.7972 S   0  0  0  0  0  0  0  0  0  0  0  0
   18.3858   -3.0458  -19.6425 O   0  0  0  0  0  0  0  0  0  0  0  0
   16.4722   -3.9928  -21.0874 C   0  0  0  0  0  0  0  0  0  0  0  0
   17.4724   -4.8962  -21.9793 C   0  0  0  0  0  0  0  0  0  0  0  0
   18.3287   -5.3029  -20.7269 N   0  0  0  0  0  0  0  0  0  0  0  0
   16.3622   -3.0186  -21.5452 H   0  0  0  0  0  0  0  0  0  0  0  0
   15.5008   -4.4662  -21.0225 H   0  0  0  0  0  0  0  0  0  0  0  0
   18.0379   -4.3033  -22.6859 H   0  0  0  0  0  0  0  0  0  0  0  0
   16.9788   -5.7370  -22.4470 H   0  0  0  0  0  0  0  0  0  0  0  0
   18.1847   -6.2826  -20.4981 H   0  0  0  0  0  0  0  0  0  0  0  0
  1  2  2  0
  2  3  2  0
  2  4  1  0
  2  6  1  0
  4  5  1  0
  4  7  1  0
  4  8  1  0
  5  6  1  0
  5  9  1  0
  5 10  1  0
  6 11  1  0
M  END
> <intraLJ>
-0.439    

> <intraEL>
-3.883    

> <intraDihe>
14.792    

> <interLJ>
0.000     

> <interEJ>
0.000     

> <gridLJ>
-2.313    

> <gridEL>
0.000     

> <totalE>
8.157     

> <LGFE>
-2.313  

> <LE>
-0.385  

> <SMILES>
O=S1(=O)CCN1

> <atom.dprop.GFE>
-0.64 0 -0.64 -0.16 -0.24 -0.62 0 0 0 0 0

> <atom.prop.CLASS>
GENA NCLA GENA PRPC PRPC GEND NCLA NCLA NCLA NCLA NCLA

$$$$
75
     RDKit          3D

 11 11  0  0  0  0  0  0  0  0999 V2000
   18.4211   -2.5933  -34.7931 O   0  0  0  0  0  0  0  0  0  0  0  0
   17.2749   -1.7754  -34.9624 S   0  0  0  0  0  0  0  0  0  0  0  0
   17.1879   -0.8853  -36.0622 O   0  0  0  0  0  0  0  0  0  0  0  0
   16.8227   -0.9490  -33.5108 C   0  0  0  0  0  0  0  0  0  0  0  0
   15.4057   -1.7151  -33.6426 C   0  0  0  0  0  0  0  0  0  0  0  0
   15.9399   -2.6454  -34.7900 N   0  0  0  0  0  0  0  0  0  0  0  0
   16.6569    0.1200  -33.5278 H   0  0  0  0  0  0  0  0  0  0  0  0
   17.3066   -1.2186  -32.5808 H   0  0  0  0  0  0  0  0  0  0  0  0
   14.6163   -1.0582  -33.9832 H   0  0  0  0  0  0  0  0  0  0  0  0
   15.1341   -2.2583  -32.7479 H   0  0  0  0  0  0  0  0  0  0  0  0
   16.0457   -3.5996  -34.4566 H   0  0  0  0  0  0  0  0  0  0  0  0
  1  2  2  0
  2  3  2  0
  2  4  1  0
  2  6  1  0
  4  5  1  0
  4  7  1  0
  4  8  1  0
  5  6  1  0
  5  9  1  0
  5 10  1  0
  6 11  1  0
M  END
> <intraLJ>
-0.439    

> <intraEL>
-3.883    

> <intraDihe>
14.792    

> <interLJ>
0.000     

> <interEJ>
0.000     

> <gridLJ>
-2.322    

> <gridEL>
0.000     

> <totalE>
8.148     

> <LGFE>
-2.322  

> <LE>
-0.387  

> <SMILES>
O=S1(=O)CCN1

> <atom.dprop.GFE>
-0.41 0 -1 -0.49 -0.32 -0.063 0 0 0 0 0

> <atom.prop.CLASS>
GENA NCLA GENA PRPC PRPC GEND NCLA NCLA NCLA NCLA NCLA

$$$$
75
     RDKit          3D

 11 11  0  0  0  0  0  0  0  0999 V2000
   -5.0994   16.5254    2.9253 O   0  0  0  0  0  0  0  0  0  0  0  0
   -5.2975   15.9241    1.6563 S   0  0  0  0  0  0  0  0  0  0  0  0
   -6.4896   15.2074    1.3830 O   0  0  0  0  0  0  0  0  0  0  0  0
   -3.9320   14.9980    1.1346 C   0  0  0  0  0  0  0  0  0  0  0  0
   -3.8854   15.9854   -0.1442 C   0  0  0  0  0  0  0  0  0  0  0  0
   -4.9419   16.9613    0.4872 N   0  0  0  0  0  0  0  0  0  0  0  0
   -4.0680   13.9789    0.7978 H   0  0  0  0  0  0  0  0  0  0  0  0
   -3.0068   15.0672    1.6923 H   0  0  0  0  0  0  0  0  0  0  0  0
   -4.2551   15.5084   -1.0422 H   0  0  0  0  0  0  0  0  0  0  0  0
   -2.9170   16.4443   -0.2886 H   0  0  0  0  0  0  0  0  0  0  0  0
   -4.5026   17.8366    0.7590 H   0  0  0  0  0  0  0  0  0  0  0  0
  1  2  2  0
  2  3  2  0
  2  4  1  0
  2  6  1  0
  4  5  1  0
  4  7  1  0
  4  8  1  0
  5  6  1  0
  5  9  1  0
  5 10  1  0
  6 11  1  0
M  END
> <intraLJ>
-0.439    

> <intraEL>
-3.883    

> <intraDihe>
14.792    

> <interLJ>
0.000     

> <interEJ>
0.000     

> <gridLJ>
-2.285    

> <gridEL>
0.000     

> <totalE>
8.185     

> <LGFE>
-2.285  

> <LE>
-0.381  

> <SMILES>
O=S1(=O)CCN1

> <atom.dprop.GFE>
-0.53 0 -0.48 -0.47 -0.59 -0.21 0 0 0 0 0

> <atom.prop.CLASS>
GENA NCLA GENA PRPC PRPC GEND NCLA NCLA NCLA NCLA NCLA

$$$$
75
     RDKit          3D

 11 11  0  0  0  0  0  0  0  0999 V2000
   10.6749    8.1966  -39.7627 O   0  0  0  0  0  0  0  0  0  0  0  0
   10.2173    8.5972  -41.0439 S   0  0  0  0  0  0  0  0  0  0  0  0
    8.9515    8.1691  -41.5170 O   0  0  0  0  0  0  0  0  0  0  0  0
   11.4059    8.3680  -42.2804 C   0  0  0  0  0  0  0  0  0  0  0  0
   11.2906    9.9595  -42.5376 C   0  0  0  0  0  0  0  0  0  0  0  0
   10.4281   10.1735  -41.2425 N   0  0  0  0  0  0  0  0  0  0  0  0
   11.1464    7.8372  -43.1867 H   0  0  0  0  0  0  0  0  0  0  0  0
   12.4175    8.1094  -41.9947 H   0  0  0  0  0  0  0  0  0  0  0  0
   10.7380   10.1886  -43.4392 H   0  0  0  0  0  0  0  0  0  0  0  0
   12.2463   10.4641  -42.4991 H   0  0  0  0  0  0  0  0  0  0  0  0
   10.9646   10.6647  -40.5326 H   0  0  0  0  0  0  0  0  0  0  0  0
  1  2  2  0
  2  3  2  0
  2  4  1  0
  2  6  1  0
  4  5  1  0
  4  7  1  0
  4  8  1  0
  5  6  1  0
  5  9  1  0
  5 10  1  0
  6 11  1  0
M  END
> <intraLJ>
-0.439    

> <intraEL>
-3.883    

> <intraDihe>
14.792    

> <interLJ>
0.000     

> <interEJ>
0.000     

> <gridLJ>
-2.256    

> <gridEL>
0.000     

> <totalE>
8.214     

> <LGFE>
-2.256  

> <LE>
-0.376  

> <SMILES>
O=S1(=O)CCN1

> <atom.dprop.GFE>
-0.88 0 -0.52 -0.27 -0.2 -0.39 0 0 0 0 0

> <atom.prop.CLASS>
GENA NCLA GENA PRPC PRPC GEND NCLA NCLA NCLA NCLA NCLA

$$$$
75
     RDKit          3D

 11 11  0  0  0  0  0  0  0  0999 V2000
   22.7909   -1.8452  -21.9207 O   0  0  0  0  0  0  0  0  0  0  0  0
   23.6560   -0.7526  -21.6578 S   0  0  0  0  0  0  0  0  0  0  0  0
   24.6474   -0.3827  -22.6010 O   0  0  0  0  0  0  0  0  0  0  0  0
   24.3564   -0.8196  -20.0769 C   0  0  0  0  0  0  0  0  0  0  0  0
   23.6501    0.6112  -19.8195 C   0  0  0  0  0  0  0  0  0  0  0  0
   22.8153    0.5125  -21.1464 N   0  0  0  0  0  0  0  0  0  0  0  0
   25.4269   -0.7195  -19.9562 H   0  0  0  0  0  0  0  0  0  0  0  0
   23.9861   -1.5503  -19.3692 H   0  0  0  0  0  0  0  0  0  0  0  0
   24.3600    1.4273  -19.8431 H   0  0  0  0  0  0  0  0  0  0  0  0
   23.0341    0.6246  -18.9308 H   0  0  0  0  0  0  0  0  0  0  0  0
   21.8312    0.3650  -20.9397 H   0  0  0  0  0  0  0  0  0  0  0  0
  1  2  2  0
  2  3  2  0
  2  4  1  0
  2  6  1  0
  4  5  1  0
  4  7  1  0
  4  8  1  0
  5  6  1  0
  5  9  1  0
  5 10  1  0
  6 11  1  0
M  END
> <intraLJ>
-0.439    

> <intraEL>
-3.883    

> <intraDihe>
14.792    

> <interLJ>
0.000     

> <interEJ>
0.000     

> <gridLJ>
-2.243    

> <gridEL>
0.000     

> <totalE>
8.227     

> <LGFE>
-2.243  

> <LE>
-0.374  

> <SMILES>
O=S1(=O)CCN1

> <atom.dprop.GFE>
-0.45 0 -0.44 -0.28 -0.44 -0.63 0 0 0 0 0

> <atom.prop.CLASS>
GENA NCLA GENA PRPC PRPC GEND NCLA NCLA NCLA NCLA NCLA

$$$$
75
     RDKit          3D

 11 11  0  0  0  0  0  0  0  0999 V2000
   -7.8179   -7.5356    9.2648 O   0  0  0  0  0  0  0  0  0  0  0  0
   -8.3772   -6.3296    9.7588 S   0  0  0  0  0  0  0  0  0  0  0  0
   -9.7092   -5.9723    9.4309 O   0  0  0  0  0  0  0  0  0  0  0  0
   -7.3376   -4.9660    9.5267 C   0  0  0  0  0  0  0  0  0  0  0  0
   -7.3772   -4.7968   11.1336 C   0  0  0  0  0  0  0  0  0  0  0  0
   -8.0881   -6.1839   11.3285 N   0  0  0  0  0  0  0  0  0  0  0  0
   -7.7211   -4.0681    9.0607 H   0  0  0  0  0  0  0  0  0  0  0  0
   -6.3206   -5.1316    9.1947 H   0  0  0  0  0  0  0  0  0  0  0  0
   -8.0031   -3.9699   11.4419 H   0  0  0  0  0  0  0  0  0  0  0  0
   -6.3926   -4.7585   11.5789 H   0  0  0  0  0  0  0  0  0  0  0  0
   -7.4520   -6.8557   11.7492 H   0  0  0  0  0  0  0  0  0  0  0  0
  1  2  2  0
  2  3  2  0
  2  4  1  0
  2  6  1  0
  4  5  1  0
  4  7  1  0
  4  8  1  0
  5  6  1  0
  5  9  1  0
  5 10  1  0
  6 11  1  0
M  END
> <intraLJ>
-0.439    

> <intraEL>
-3.883    

> <intraDihe>
14.792    

> <interLJ>
0.000     

> <interEJ>
0.000     

> <gridLJ>
-2.171    

> <gridEL>
0.000     

> <totalE>
8.299     

> <LGFE>
-2.171  

> <LE>
-0.362  

> <SMILES>
O=S1(=O)CCN1

> <atom.dprop.GFE>
-0.45 0 -0.9 -0.18 -0.24 -0.41 0 0 0 0 0

> <atom.prop.CLASS>
GENA NCLA GENA PRPC PRPC GEND NCLA NCLA NCLA NCLA NCLA

$$$$
75
     RDKit          3D

 11 11  0  0  0  0  0  0  0  0999 V2000
  -17.0407    1.0040  -21.5410 O   0  0  0  0  0  0  0  0  0  0  0  0
  -15.9614    0.0982  -21.7019 S   0  0  0  0  0  0  0  0  0  0  0  0
  -15.6284   -0.8085  -20.6644 O   0  0  0  0  0  0  0  0  0  0  0  0
  -14.5243    0.8668  -22.2834 C   0  0  0  0  0  0  0  0  0  0  0  0
  -14.6175   -0.1473  -23.5384 C   0  0  0  0  0  0  0  0  0  0  0  0
  -16.0541   -0.6307  -23.1263 N   0  0  0  0  0  0  0  0  0  0  0  0
  -13.5852    0.7159  -21.7677 H   0  0  0  0  0  0  0  0  0  0  0  0
  -14.5796    1.8916  -22.6278 H   0  0  0  0  0  0  0  0  0  0  0  0
  -13.8857   -0.9418  -23.4769 H   0  0  0  0  0  0  0  0  0  0  0  0
  -14.5982    0.3595  -24.4935 H   0  0  0  0  0  0  0  0  0  0  0  0
  -16.7495   -0.2850  -23.7819 H   0  0  0  0  0  0  0  0  0  0  0  0
  1  2  2  0
  2  3  2  0
  2  4  1  0
  2  6  1  0
  4  5  1  0
  4  7  1  0
  4  8  1  0
  5  6  1  0
  5  9  1  0
  5 10  1  0
  6 11  1  0
M  END
> <intraLJ>
-0.439    

> <intraEL>
-3.883    

> <intraDihe>
14.792    

> <interLJ>
0.000     

> <interEJ>
0.000     

> <gridLJ>
-2.176    

> <gridEL>
0.000     

> <totalE>
8.294     

> <LGFE>
-2.176  

> <LE>
-0.363  

> <SMILES>
O=S1(=O)CCN1

> <atom.dprop.GFE>
-0.83 0 -1 -0.08 0.0057 -0.27 0 0 0 0 0

> <atom.prop.CLASS>
GENA NCLA GENA PRPC PRPC GEND NCLA NCLA NCLA NCLA NCLA

$$$$
75
     RDKit          3D

 11 11  0  0  0  0  0  0  0  0999 V2000
   10.8759   15.7639   -8.3714 O   0  0  0  0  0  0  0  0  0  0  0  0
   10.0525   16.3138   -9.3867 S   0  0  0  0  0  0  0  0  0  0  0  0
   10.2669   17.6392   -9.8413 O   0  0  0  0  0  0  0  0  0  0  0  0
    8.3661   16.0704   -9.0849 C   0  0  0  0  0  0  0  0  0  0  0  0
    8.3369   15.2796  -10.4942 C   0  0  0  0  0  0  0  0  0  0  0  0
    9.9039   15.2810  -10.6032 N   0  0  0  0  0  0  0  0  0  0  0  0
    7.6835   16.9088   -9.1284 H   0  0  0  0  0  0  0  0  0  0  0  0
    8.0665   15.4100   -8.2812 H   0  0  0  0  0  0  0  0  0  0  0  0
    7.8721   15.8611  -11.2793 H   0  0  0  0  0  0  0  0  0  0  0  0
    7.9182   14.2860  -10.4126 H   0  0  0  0  0  0  0  0  0  0  0  0
   10.2727   14.3439  -10.4661 H   0  0  0  0  0  0  0  0  0  0  0  0
  1  2  2  0
  2  3  2  0
  2  4  1  0
  2  6  1  0
  4  5  1  0
  4  7  1  0
  4  8  1  0
  5  6  1  0
  5  9  1  0
  5 10  1  0
  6 11  1  0
M  END
> <intraLJ>
-0.439    

> <intraEL>
-3.883    

> <intraDihe>
14.792    

> <interLJ>
0.000     

> <interEJ>
0.000     

> <gridLJ>
-2.179    

> <gridEL>
0.000     

> <totalE>
8.291     

> <LGFE>
-2.179  

> <LE>
-0.363  

> <SMILES>
O=S1(=O)CCN1

> <atom.dprop.GFE>
-0.42 0 -0.42 -0.28 -0.27 -0.78 0 0 0 0 0

> <atom.prop.CLASS>
GENA NCLA GENA PRPC PRPC GEND NCLA NCLA NCLA NCLA NCLA

$$$$
75
     RDKit          3D

 11 11  0  0  0  0  0  0  0  0999 V2000
  -39.3465    4.7534   31.1764 O   0  0  0  0  0  0  0  0  0  0  0  0
  -40.2731    4.8776   30.1100 S   0  0  0  0  0  0  0  0  0  0  0  0
  -40.9264    6.1126   29.8707 O   0  0  0  0  0  0  0  0  0  0  0  0
  -41.4323    3.5932   30.0783 C   0  0  0  0  0  0  0  0  0  0  0  0
  -40.8725    3.2674   28.5976 C   0  0  0  0  0  0  0  0  0  0  0  0
  -39.6619    4.2540   28.7659 N   0  0  0  0  0  0  0  0  0  0  0  0
  -42.4885    3.8208   30.0219 H   0  0  0  0  0  0  0  0  0  0  0  0
  -41.2873    2.7391   30.7275 H   0  0  0  0  0  0  0  0  0  0  0  0
  -41.5562    3.5879   27.8227 H   0  0  0  0  0  0  0  0  0  0  0  0
  -40.5667    2.2370   28.4786 H   0  0  0  0  0  0  0  0  0  0  0  0
  -38.7894    3.7391   28.8463 H   0  0  0  0  0  0  0  0  0  0  0  0
  1  2  2  0
  2  3  2  0
  2  4  1  0
  2  6  1  0
  4  5  1  0
  4  7  1  0
  4  8  1  0
  5  6  1  0
  5  9  1  0
  5 10  1  0
  6 11  1  0
M  END
> <intraLJ>
-0.439    

> <intraEL>
-3.883    

> <intraDihe>
14.792    

> <interLJ>
0.000     

> <interEJ>
0.000     

> <gridLJ>
-2.170    

> <gridEL>
0.000     

> <totalE>
8.300     

> <LGFE>
-2.170  

> <LE>
-0.362  

> <SMILES>
O=S1(=O)CCN1

> <atom.dprop.GFE>
-0.59 0 -0.62 -0.17 -0.29 -0.5 0 0 0 0 0

> <atom.prop.CLASS>
GENA NCLA GENA PRPC PRPC GEND NCLA NCLA NCLA NCLA NCLA

$$$$
75
     RDKit          3D

 11 11  0  0  0  0  0  0  0  0999 V2000
   12.3869   15.1903   -7.9021 O   0  0  0  0  0  0  0  0  0  0  0  0
   11.7088   16.0753   -8.7786 S   0  0  0  0  0  0  0  0  0  0  0  0
   12.4222   17.0944   -9.4583 O   0  0  0  0  0  0  0  0  0  0  0  0
   10.2735   16.7412   -8.0781 C   0  0  0  0  0  0  0  0  0  0  0  0
    9.4835   16.0636   -9.3146 C   0  0  0  0  0  0  0  0  0  0  0  0
   10.7512   15.2543   -9.7675 N   0  0  0  0  0  0  0  0  0  0  0  0
   10.1129   17.8110   -8.0911 H   0  0  0  0  0  0  0  0  0  0  0  0
    9.9120   16.3393   -7.1402 H   0  0  0  0  0  0  0  0  0  0  0  0
    9.1788   16.7929  -10.0534 H   0  0  0  0  0  0  0  0  0  0  0  0
    8.6665   15.4300   -8.9978 H   0  0  0  0  0  0  0  0  0  0  0  0
   10.6284   14.2629   -9.5802 H   0  0  0  0  0  0  0  0  0  0  0  0
  1  2  2  0
  2  3  2  0
  2  4  1  0
  2  6  1  0
  4  5  1  0
  4  7  1  0
  4  8  1  0
  5  6  1  0
  5  9  1  0
  5 10  1  0
  6 11  1  0
M  END
> <intraLJ>
-0.439    

> <intraEL>
-3.883    

> <intraDihe>
14.792    

> <interLJ>
0.000     

> <interEJ>
0.000     

> <gridLJ>
-2.161    

> <gridEL>
0.000     

> <totalE>
8.309     

> <LGFE>
-2.161  

> <LE>
-0.360  

> <SMILES>
O=S1(=O)CCN1

> <atom.dprop.GFE>
-0.8 0 -0.3 -0.19 -0.34 -0.53 0 0 0 0 0

> <atom.prop.CLASS>
GENA NCLA GENA PRPC PRPC GEND NCLA NCLA NCLA NCLA NCLA

$$$$
75
     RDKit          3D

 11 11  0  0  0  0  0  0  0  0999 V2000
   19.7386   -5.6004   -7.6310 O   0  0  0  0  0  0  0  0  0  0  0  0
   18.8898   -4.5359   -7.2339 S   0  0  0  0  0  0  0  0  0  0  0  0
   17.8548   -4.0884   -8.0929 O   0  0  0  0  0  0  0  0  0  0  0  0
   19.7658   -3.1741   -6.6236 C   0  0  0  0  0  0  0  0  0  0  0  0
   18.9356   -3.3890   -5.2537 C   0  0  0  0  0  0  0  0  0  0  0  0
   18.3657   -4.7703   -5.7376 N   0  0  0  0  0  0  0  0  0  0  0  0
   19.5662   -2.1851   -7.0141 H   0  0  0  0  0  0  0  0  0  0  0  0
   20.8271   -3.2741   -6.4354 H   0  0  0  0  0  0  0  0  0  0  0  0
   18.1577   -2.6477   -5.1269 H   0  0  0  0  0  0  0  0  0  0  0  0
   19.5714   -3.4739   -4.3831 H   0  0  0  0  0  0  0  0  0  0  0  0
   18.7834   -5.5334   -5.2120 H   0  0  0  0  0  0  0  0  0  0  0  0
  1  2  2  0
  2  3  2  0
  2  4  1  0
  2  6  1  0
  4  5  1  0
  4  7  1  0
  4  8  1  0
  5  6  1  0
  5  9  1  0
  5 10  1  0
  6 11  1  0
M  END
> <intraLJ>
-0.439    

> <intraEL>
-3.883    

> <intraDihe>
14.792    

> <interLJ>
0.000     

> <interEJ>
0.000     

> <gridLJ>
-2.125    

> <gridEL>
0.000     

> <totalE>
8.345     

> <LGFE>
-2.125  

> <LE>
-0.354  

> <SMILES>
O=S1(=O)CCN1

> <atom.dprop.GFE>
-0.19 0 -1.1 -0.16 -0.17 -0.53 0 0 0 0 0

> <atom.prop.CLASS>
GENA NCLA GENA PRPC PRPC GEND NCLA NCLA NCLA NCLA NCLA

$$$$
75
     RDKit          3D

 11 11  0  0  0  0  0  0  0  0999 V2000
    0.9441   -6.1286    3.1409 O   0  0  0  0  0  0  0  0  0  0  0  0
    0.6259   -6.8070    1.9367 S   0  0  0  0  0  0  0  0  0  0  0  0
    1.0428   -6.2808    0.6882 O   0  0  0  0  0  0  0  0  0  0  0  0
   -1.0409   -7.2625    1.8461 C   0  0  0  0  0  0  0  0  0  0  0  0
   -0.5082   -8.7827    1.7147 C   0  0  0  0  0  0  0  0  0  0  0  0
    0.9643   -8.3678    2.0709 N   0  0  0  0  0  0  0  0  0  0  0  0
   -1.6231   -7.0081    0.9704 H   0  0  0  0  0  0  0  0  0  0  0  0
   -1.6617   -7.1604    2.7271 H   0  0  0  0  0  0  0  0  0  0  0  0
   -0.5934   -9.1596    0.7041 H   0  0  0  0  0  0  0  0  0  0  0  0
   -0.9490   -9.4495    2.4430 H   0  0  0  0  0  0  0  0  0  0  0  0
    1.2196   -8.7114    2.9928 H   0  0  0  0  0  0  0  0  0  0  0  0
  1  2  2  0
  2  3  2  0
  2  4  1  0
  2  6  1  0
  4  5  1  0
  4  7  1  0
  4  8  1  0
  5  6  1  0
  5  9  1  0
  5 10  1  0
  6 11  1  0
M  END
> <intraLJ>
-0.439    

> <intraEL>
-3.883    

> <intraDihe>
14.792    

> <interLJ>
0.000     

> <interEJ>
0.000     

> <gridLJ>
-2.082    

> <gridEL>
0.000     

> <totalE>
8.388     

> <LGFE>
-2.082  

> <LE>
-0.347  

> <SMILES>
O=S1(=O)CCN1

> <atom.dprop.GFE>
-0.63 0 -1.1 -0.12 -0.0097 -0.27 0 0 0 0 0

> <atom.prop.CLASS>
GENA NCLA GENA PRPC PRPC GEND NCLA NCLA NCLA NCLA NCLA

$$$$
75
     RDKit          3D

 11 11  0  0  0  0  0  0  0  0999 V2000
   19.4111    2.8807  -49.5108 O   0  0  0  0  0  0  0  0  0  0  0  0
   18.2795    3.7203  -49.6719 S   0  0  0  0  0  0  0  0  0  0  0  0
   16.9770    3.2207  -49.4203 O   0  0  0  0  0  0  0  0  0  0  0  0
   18.2912    4.5772  -51.1751 C   0  0  0  0  0  0  0  0  0  0  0  0
   18.2637    5.9256  -50.2845 C   0  0  0  0  0  0  0  0  0  0  0  0
   18.5274    5.1321  -48.9549 N   0  0  0  0  0  0  0  0  0  0  0  0
   17.4209    4.5521  -51.8173 H   0  0  0  0  0  0  0  0  0  0  0  0
   19.1843    4.5529  -51.7864 H   0  0  0  0  0  0  0  0  0  0  0  0
   17.2912    6.3999  -50.2914 H   0  0  0  0  0  0  0  0  0  0  0  0
   19.0605    6.6129  -50.5336 H   0  0  0  0  0  0  0  0  0  0  0  0
   19.4636    5.3194  -48.6063 H   0  0  0  0  0  0  0  0  0  0  0  0
  1  2  2  0
  2  3  2  0
  2  4  1  0
  2  6  1  0
  4  5  1  0
  4  7  1  0
  4  8  1  0
  5  6  1  0
  5  9  1  0
  5 10  1  0
  6 11  1  0
M  END
> <intraLJ>
-0.439    

> <intraEL>
-3.883    

> <intraDihe>
14.792    

> <interLJ>
0.000     

> <interEJ>
0.000     

> <gridLJ>
-2.107    

> <gridEL>
0.000     

> <totalE>
8.363     

> <LGFE>
-2.107  

> <LE>
-0.351  

> <SMILES>
O=S1(=O)CCN1

> <atom.dprop.GFE>
-0.61 0 -0.47 -0.24 -0.35 -0.44 0 0 0 0 0

> <atom.prop.CLASS>
GENA NCLA GENA PRPC PRPC GEND NCLA NCLA NCLA NCLA NCLA

$$$$
75
     RDKit          3D

 11 11  0  0  0  0  0  0  0  0999 V2000
   23.4493   13.1209  -16.9578 O   0  0  0  0  0  0  0  0  0  0  0  0
   22.4506   12.4371  -17.6967 S   0  0  0  0  0  0  0  0  0  0  0  0
   22.8036   11.3633  -18.5522 O   0  0  0  0  0  0  0  0  0  0  0  0
   21.3798   13.5125  -18.5281 C   0  0  0  0  0  0  0  0  0  0  0  0
   20.1949   12.8249  -17.6705 C   0  0  0  0  0  0  0  0  0  0  0  0
   21.2136   12.0642  -16.7482 N   0  0  0  0  0  0  0  0  0  0  0  0
   21.1875   13.3734  -19.5837 H   0  0  0  0  0  0  0  0  0  0  0  0
   21.4286   14.5723  -18.3127 H   0  0  0  0  0  0  0  0  0  0  0  0
   19.5990   12.1472  -18.2673 H   0  0  0  0  0  0  0  0  0  0  0  0
   19.5906   13.5430  -17.1333 H   0  0  0  0  0  0  0  0  0  0  0  0
   21.2103   12.4576  -15.8111 H   0  0  0  0  0  0  0  0  0  0  0  0
  1  2  2  0
  2  3  2  0
  2  4  1  0
  2  6  1  0
  4  5  1  0
  4  7  1  0
  4  8  1  0
  5  6  1  0
  5  9  1  0
  5 10  1  0
  6 11  1  0
M  END
> <intraLJ>
-0.439    

> <intraEL>
-3.883    

> <intraDihe>
14.792    

> <interLJ>
0.000     

> <interEJ>
0.000     

> <gridLJ>
-2.089    

> <gridEL>
0.000     

> <totalE>
8.381     

> <LGFE>
-2.089  

> <LE>
-0.348  

> <SMILES>
O=S1(=O)CCN1

> <atom.dprop.GFE>
-0.4 0 -0.51 -0.43 -0.32 -0.44 0 0 0 0 0

> <atom.prop.CLASS>
GENA NCLA GENA PRPC PRPC GEND NCLA NCLA NCLA NCLA NCLA

$$$$
75
     RDKit          3D

 11 11  0  0  0  0  0  0  0  0999 V2000
  -33.9576   -6.9050   21.4715 O   0  0  0  0  0  0  0  0  0  0  0  0
  -34.2480   -6.7487   22.8508 S   0  0  0  0  0  0  0  0  0  0  0  0
  -34.0310   -7.8204   23.7530 O   0  0  0  0  0  0  0  0  0  0  0  0
  -35.8116   -6.0626   23.1314 C   0  0  0  0  0  0  0  0  0  0  0  0
  -35.0339   -4.8722   23.8998 C   0  0  0  0  0  0  0  0  0  0  0  0
  -33.6327   -5.3732   23.3969 N   0  0  0  0  0  0  0  0  0  0  0  0
  -36.4976   -6.5446   23.8153 H   0  0  0  0  0  0  0  0  0  0  0  0
  -36.3679   -5.6635   22.2930 H   0  0  0  0  0  0  0  0  0  0  0  0
  -35.1330   -4.9467   24.9746 H   0  0  0  0  0  0  0  0  0  0  0  0
  -35.2917   -3.8901   23.5280 H   0  0  0  0  0  0  0  0  0  0  0  0
  -33.2482   -4.7301   22.7103 H   0  0  0  0  0  0  0  0  0  0  0  0
  1  2  2  0
  2  3  2  0
  2  4  1  0
  2  6  1  0
  4  5  1  0
  4  7  1  0
  4  8  1  0
  5  6  1  0
  5  9  1  0
  5 10  1  0
  6 11  1  0
M  END
> <intraLJ>
-0.439    

> <intraEL>
-3.883    

> <intraDihe>
14.792    

> <interLJ>
0.000     

> <interEJ>
0.000     

> <gridLJ>
-2.100    

> <gridEL>
0.000     

> <totalE>
8.370     

> <LGFE>
-2.100  

> <LE>
-0.350  

> <SMILES>
O=S1(=O)CCN1

> <atom.dprop.GFE>
-0.6 0 -0.55 -0.25 -0.18 -0.52 0 0 0 0 0

> <atom.prop.CLASS>
GENA NCLA GENA PRPC PRPC GEND NCLA NCLA NCLA NCLA NCLA

$$$$
75
     RDKit          3D

 11 11  0  0  0  0  0  0  0  0999 V2000
   11.7359   -4.8912    4.9827 O   0  0  0  0  0  0  0  0  0  0  0  0
   11.5870   -4.7567    6.3866 S   0  0  0  0  0  0  0  0  0  0  0  0
   11.8588   -5.8534    7.2426 O   0  0  0  0  0  0  0  0  0  0  0  0
   10.0802   -4.0326    6.8331 C   0  0  0  0  0  0  0  0  0  0  0  0
   10.9655   -2.8818    7.5431 C   0  0  0  0  0  0  0  0  0  0  0  0
   12.2946   -3.4115    6.8951 N   0  0  0  0  0  0  0  0  0  0  0  0
    9.4503   -4.5095    7.5721 H   0  0  0  0  0  0  0  0  0  0  0  0
    9.4567   -3.5997    6.0612 H   0  0  0  0  0  0  0  0  0  0  0  0
   10.9701   -2.9767    8.6209 H   0  0  0  0  0  0  0  0  0  0  0  0
   10.7025   -1.8848    7.2171 H   0  0  0  0  0  0  0  0  0  0  0  0
   12.6293   -2.7648    6.1861 H   0  0  0  0  0  0  0  0  0  0  0  0
  1  2  2  0
  2  3  2  0
  2  4  1  0
  2  6  1  0
  4  5  1  0
  4  7  1  0
  4  8  1  0
  5  6  1  0
  5  9  1  0
  5 10  1  0
  6 11  1  0
M  END
> <intraLJ>
-0.439    

> <intraEL>
-3.883    

> <intraDihe>
14.792    

> <interLJ>
0.000     

> <interEJ>
0.000     

> <gridLJ>
-2.083    

> <gridEL>
0.000     

> <totalE>
8.387     

> <LGFE>
-2.083  

> <LE>
-0.347  

> <SMILES>
O=S1(=O)CCN1

> <atom.dprop.GFE>
-0.58 0 -0.53 -0.26 -0.25 -0.46 0 0 0 0 0

> <atom.prop.CLASS>
GENA NCLA GENA PRPC PRPC GEND NCLA NCLA NCLA NCLA NCLA

$$$$
75
     RDKit          3D

 11 11  0  0  0  0  0  0  0  0999 V2000
   -4.8648    6.7596  -12.5285 O   0  0  0  0  0  0  0  0  0  0  0  0
   -4.6732    5.6822  -11.6264 S   0  0  0  0  0  0  0  0  0  0  0  0
   -5.7006    5.3169  -10.7205 O   0  0  0  0  0  0  0  0  0  0  0  0
   -3.1643    5.7750  -10.7846 C   0  0  0  0  0  0  0  0  0  0  0  0
   -2.8304    4.3370  -11.4424 C   0  0  0  0  0  0  0  0  0  0  0  0
   -4.0755    4.4103  -12.3972 N   0  0  0  0  0  0  0  0  0  0  0  0
   -3.1420    5.6914   -9.7061 H   0  0  0  0  0  0  0  0  0  0  0  0
   -2.4318    6.5074  -11.0991 H   0  0  0  0  0  0  0  0  0  0  0  0
   -2.9122    3.5309  -10.7254 H   0  0  0  0  0  0  0  0  0  0  0  0
   -1.8887    4.3237  -11.9737 H   0  0  0  0  0  0  0  0  0  0  0  0
   -3.7803    4.5459  -13.3602 H   0  0  0  0  0  0  0  0  0  0  0  0
  1  2  2  0
  2  3  2  0
  2  4  1  0
  2  6  1  0
  4  5  1  0
  4  7  1  0
  4  8  1  0
  5  6  1  0
  5  9  1  0
  5 10  1  0
  6 11  1  0
M  END
> <intraLJ>
-0.439    

> <intraEL>
-3.883    

> <intraDihe>
14.792    

> <interLJ>
0.000     

> <interEJ>
0.000     

> <gridLJ>
-2.087    

> <gridEL>
0.000     

> <totalE>
8.383     

> <LGFE>
-2.087  

> <LE>
-0.348  

> <SMILES>
O=S1(=O)CCN1

> <atom.dprop.GFE>
-0.64 0 -0.64 -0.27 -0.14 -0.39 0 0 0 0 0

> <atom.prop.CLASS>
GENA NCLA GENA PRPC PRPC GEND NCLA NCLA NCLA NCLA NCLA

$$$$
75
     RDKit          3D

 11 11  0  0  0  0  0  0  0  0999 V2000
  -10.8095   -1.8443   12.3845 O   0  0  0  0  0  0  0  0  0  0  0  0
  -11.7366   -2.0375   13.4402 S   0  0  0  0  0  0  0  0  0  0  0  0
  -12.0205   -0.9832   14.3443 O   0  0  0  0  0  0  0  0  0  0  0  0
  -11.4492   -3.4971   14.3239 C   0  0  0  0  0  0  0  0  0  0  0  0
  -12.9475   -3.9257   13.8957 C   0  0  0  0  0  0  0  0  0  0  0  0
  -13.0735   -2.7277   12.8877 N   0  0  0  0  0  0  0  0  0  0  0  0
  -11.3772   -3.4693   15.4031 H   0  0  0  0  0  0  0  0  0  0  0  0
  -10.7330   -4.2117   13.9387 H   0  0  0  0  0  0  0  0  0  0  0  0
  -13.6465   -3.8435   14.7175 H   0  0  0  0  0  0  0  0  0  0  0  0
  -12.9889   -4.8925   13.4130 H   0  0  0  0  0  0  0  0  0  0  0  0
  -13.0616   -3.0644   11.9288 H   0  0  0  0  0  0  0  0  0  0  0  0
  1  2  2  0
  2  3  2  0
  2  4  1  0
  2  6  1  0
  4  5  1  0
  4  7  1  0
  4  8  1  0
  5  6  1  0
  5  9  1  0
  5 10  1  0
  6 11  1  0
M  END
> <intraLJ>
-0.439    

> <intraEL>
-3.883    

> <intraDihe>
14.792    

> <interLJ>
0.000     

> <interEJ>
0.000     

> <gridLJ>
-2.029    

> <gridEL>
0.000     

> <totalE>
8.441     

> <LGFE>
-2.029  

> <LE>
-0.338  

> <SMILES>
O=S1(=O)CCN1

> <atom.dprop.GFE>
-0.51 0 -0.85 -0.27 -0.18 -0.24 0 0 0 0 0

> <atom.prop.CLASS>
GENA NCLA GENA PRPC PRPC GEND NCLA NCLA NCLA NCLA NCLA

$$$$
75
     RDKit          3D

 11 11  0  0  0  0  0  0  0  0999 V2000
   23.6976   16.2251   -7.3865 O   0  0  0  0  0  0  0  0  0  0  0  0
   24.6372   15.8203   -8.3686 S   0  0  0  0  0  0  0  0  0  0  0  0
   25.9056   15.3199   -7.9812 O   0  0  0  0  0  0  0  0  0  0  0  0
   24.8359   16.9914   -9.6269 C   0  0  0  0  0  0  0  0  0  0  0  0
   24.3597   15.8261  -10.6406 C   0  0  0  0  0  0  0  0  0  0  0  0
   23.9322   14.8822   -9.4603 N   0  0  0  0  0  0  0  0  0  0  0  0
   25.8277   17.3248   -9.9021 H   0  0  0  0  0  0  0  0  0  0  0  0
   24.1530   17.8299   -9.6763 H   0  0  0  0  0  0  0  0  0  0  0  0
   25.1839   15.4193  -11.2114 H   0  0  0  0  0  0  0  0  0  0  0  0
   23.5303   16.1241  -11.2673 H   0  0  0  0  0  0  0  0  0  0  0  0
   22.9202   14.7981   -9.4181 H   0  0  0  0  0  0  0  0  0  0  0  0
  1  2  2  0
  2  3  2  0
  2  4  1  0
  2  6  1  0
  4  5  1  0
  4  7  1  0
  4  8  1  0
  5  6  1  0
  5  9  1  0
  5 10  1  0
  6 11  1  0
M  END
> <intraLJ>
-0.439    

> <intraEL>
-3.883    

> <intraDihe>
14.792    

> <interLJ>
0.000     

> <interEJ>
0.000     

> <gridLJ>
-2.026    

> <gridEL>
0.000     

> <totalE>
8.444     

> <LGFE>
-2.026  

> <LE>
-0.338  

> <SMILES>
O=S1(=O)CCN1

> <atom.dprop.GFE>
-0.48 0 -0.66 -0.2 -0.13 -0.56 0 0 0 0 0

> <atom.prop.CLASS>
GENA NCLA GENA PRPC PRPC GEND NCLA NCLA NCLA NCLA NCLA

$$$$
75
     RDKit          3D

 11 11  0  0  0  0  0  0  0  0999 V2000
  -25.3818   -3.0394   32.1966 O   0  0  0  0  0  0  0  0  0  0  0  0
  -26.2532   -3.8445   31.4194 S   0  0  0  0  0  0  0  0  0  0  0  0
  -25.7306   -4.8655   30.5865 O   0  0  0  0  0  0  0  0  0  0  0  0
  -27.4140   -2.9135   30.5362 C   0  0  0  0  0  0  0  0  0  0  0  0
  -28.5388   -3.7448   31.3461 C   0  0  0  0  0  0  0  0  0  0  0  0
  -27.4732   -4.3701   32.3160 N   0  0  0  0  0  0  0  0  0  0  0  0
  -27.5410   -3.0765   29.4742 H   0  0  0  0  0  0  0  0  0  0  0  0
  -27.5088   -1.8559   30.7469 H   0  0  0  0  0  0  0  0  0  0  0  0
  -29.0178   -4.4928   30.7283 H   0  0  0  0  0  0  0  0  0  0  0  0
  -29.2516   -3.1085   31.8524 H   0  0  0  0  0  0  0  0  0  0  0  0
  -27.5669   -3.9798   33.2497 H   0  0  0  0  0  0  0  0  0  0  0  0
  1  2  2  0
  2  3  2  0
  2  4  1  0
  2  6  1  0
  4  5  1  0
  4  7  1  0
  4  8  1  0
  5  6  1  0
  5  9  1  0
  5 10  1  0
  6 11  1  0
M  END
> <intraLJ>
-0.439    

> <intraEL>
-3.883    

> <intraDihe>
14.792    

> <interLJ>
0.000     

> <interEJ>
0.000     

> <gridLJ>
-2.032    

> <gridEL>
0.000     

> <totalE>
8.438     

> <LGFE>
-2.032  

> <LE>
-0.339  

> <SMILES>
O=S1(=O)CCN1

> <atom.dprop.GFE>
-0.52 0 -0.61 -0.28 -0.22 -0.4 0 0 0 0 0

> <atom.prop.CLASS>
GENA NCLA GENA PRPC PRPC GEND NCLA NCLA NCLA NCLA NCLA

$$$$
75
     RDKit          3D

 11 11  0  0  0  0  0  0  0  0999 V2000
   25.9011   10.7054  -42.6311 O   0  0  0  0  0  0  0  0  0  0  0  0
   24.6068   10.2302  -42.9632 S   0  0  0  0  0  0  0  0  0  0  0  0
   23.5450   11.1430  -43.1841 O   0  0  0  0  0  0  0  0  0  0  0  0
   24.0715    8.9607  -41.9163 C   0  0  0  0  0  0  0  0  0  0  0  0
   23.9585    8.0537  -43.2492 C   0  0  0  0  0  0  0  0  0  0  0  0
   24.6991    9.1281  -44.1233 N   0  0  0  0  0  0  0  0  0  0  0  0
   23.1013    9.0256  -41.4417 H   0  0  0  0  0  0  0  0  0  0  0  0
   24.7766    8.5189  -41.2238 H   0  0  0  0  0  0  0  0  0  0  0  0
   22.9322    7.9106  -43.5602 H   0  0  0  0  0  0  0  0  0  0  0  0
   24.5011    7.1214  -43.1731 H   0  0  0  0  0  0  0  0  0  0  0  0
   25.6260    8.8013  -44.3824 H   0  0  0  0  0  0  0  0  0  0  0  0
  1  2  2  0
  2  3  2  0
  2  4  1  0
  2  6  1  0
  4  5  1  0
  4  7  1  0
  4  8  1  0
  5  6  1  0
  5  9  1  0
  5 10  1  0
  6 11  1  0
M  END
> <intraLJ>
-0.439    

> <intraEL>
-3.883    

> <intraDihe>
14.792    

> <interLJ>
0.000     

> <interEJ>
0.000     

> <gridLJ>
-2.011    

> <gridEL>
0.000     

> <totalE>
8.459     

> <LGFE>
-2.011  

> <LE>
-0.335  

> <SMILES>
O=S1(=O)CCN1

> <atom.dprop.GFE>
-0.34 0 -0.57 -0.24 -0.27 -0.59 0 0 0 0 0

> <atom.prop.CLASS>
GENA NCLA GENA PRPC PRPC GEND NCLA NCLA NCLA NCLA NCLA

$$$$
