35_2
     RDKit          3D

 10 10  0  0  0  0  0  0  0  0999 V2000
   16.2407    9.9905  -45.9191 N   0  0  0  0  0  0  0  0  0  0  0  0
   16.4674   11.2606  -46.4161 C   0  0  0  0  0  0  0  0  0  0  0  0
   16.2368   12.3596  -45.7104 N   0  0  0  0  0  0  0  0  0  0  0  0
   16.5650   13.3884  -46.4959 C   0  0  0  0  0  0  0  0  0  0  0  0
   16.9755   12.9446  -47.6366 N   0  0  0  0  0  0  0  0  0  0  0  0
   16.9112   11.5607  -47.5930 N   0  0  0  0  0  0  0  0  0  0  0  0
   16.6802    9.2733  -46.5162 H   0  0  0  0  0  0  0  0  0  0  0  0
   16.4256    9.8655  -44.9157 H   0  0  0  0  0  0  0  0  0  0  0  0
   15.8614   12.3915  -44.7546 H   0  0  0  0  0  0  0  0  0  0  0  0
   16.4754   14.3948  -46.1757 H   0  0  0  0  0  0  0  0  0  0  0  0
  1  2  1  0
  1  7  1  0
  1  8  1  0
  2  3  1  0
  2  6  2  0
  3  4  1  0
  3  9  1  0
  4  5  2  0
  4 10  1  0
  5  6  1  0
M  END
> <intraLJ>
-0.237    

> <intraEL>
-7.007    

> <intraDihe>
2.733     

> <interLJ>
0.000     

> <interEJ>
0.000     

> <gridLJ>
-2.495    

> <gridEL>
0.000     

> <totalE>
-7.007    

> <LGFE>
-2.495  

> <LE>
-0.416  

> <SMILES>
Nc1nnc[nH]1

> <atom.dprop.GFE>
-0.66 -0.14 -0.51 -0.081 -0.6 -0.49 0 0 0 0

> <atom.prop.CLASS>
GEND GEHC GEND GEHC GENA GENA NCLA NCLA NCLA NCLA

$$$$
