48_2
     RDKit          3D

 18 17  0  0  1  0  0  0  0  0999 V2000
  -26.8285   -3.1329   31.0558 C   0  0  0  0  0  0  0  0  0  0  0  0
  -25.7162   -3.9477   30.3701 C   0  0  0  0  0  0  0  0  0  0  0  0
  -24.9178   -4.8469   31.3291 C   0  0  0  0  0  0  0  0  0  0  0  0
  -24.2998   -4.0122   32.3935 N   0  0  0  0  0  0  0  0  0  0  0  0
  -23.8414   -5.6732   30.5636 C   0  0  0  0  0  0  0  0  0  0  0  0
  -22.7104   -5.7266   31.0202 O   0  0  0  0  0  0  0  0  0  0  0  0
  -24.1251   -6.3387   29.4516 N   0  0  0  0  0  0  0  0  0  0  0  0
  -27.4089   -2.6070   30.2931 H   0  0  0  0  0  0  0  0  0  0  0  0
  -26.4153   -2.3833   31.7316 H   0  0  0  0  0  0  0  0  0  0  0  0
  -27.5073   -3.7905   31.6028 H   0  0  0  0  0  0  0  0  0  0  0  0
  -25.0358   -3.2658   29.8558 H   0  0  0  0  0  0  0  0  0  0  0  0
  -26.1814   -4.5787   29.6101 H   0  0  0  0  0  0  0  0  0  0  0  0
  -25.6120   -5.5581   31.7815 H   0  0  0  0  0  0  0  0  0  0  0  0
  -23.5564   -3.4766   31.9602 H   0  0  0  0  0  0  0  0  0  0  0  0
  -23.8491   -4.6121   33.0704 H   0  0  0  0  0  0  0  0  0  0  0  0
  -24.9797   -3.4064   32.8244 H   0  0  0  0  0  0  0  0  0  0  0  0
  -23.3627   -6.8518   29.0289 H   0  0  0  0  0  0  0  0  0  0  0  0
  -25.0355   -6.3369   29.0189 H   0  0  0  0  0  0  0  0  0  0  0  0
  1  2  1  0
  1  8  1  0
  1  9  1  0
  1 10  1  0
  2  3  1  0
  2 11  1  0
  2 12  1  0
  3  4  1  0
  3  5  1  0
  3 13  1  0
  4 14  1  0
  4 15  1  0
  4 16  1  0
  5  6  2  0
  5  7  1  0
  7 17  1  0
  7 18  1  0
M  CHG  1   4   1
M  END
> <intraLJ>
0.362     

> <intraEL>
1.594     

> <intraDihe>
0.587     

> <interLJ>
0.000     

> <interEJ>
0.000     

> <gridLJ>
-2.481    

> <gridEL>
0.000     

> <totalE>
0.062     

> <LGFE>
-2.481  

> <LE>
-0.354  

> <SMILES>
CCC([NH3+])C(N)=O

> <atom.dprop.GFE>
-0.31 -0.35 -0.33 -0.36 0 -0.58 -0.55 0 0 0 0 0 0 0 0 0 0 0

> <atom.prop.CLASS>
PRPC PRPC PRPC MAMN NCLA GENA GEND NCLA NCLA NCLA NCLA NCLA NCLA NCLA NCLA NCLA NCLA NCLA

$$$$
