48_2
     RDKit          3D

 18 17  0  0  1  0  0  0  0  0999 V2000
  -10.3109   12.9381    4.0383 C   0  0  0  0  0  0  0  0  0  0  0  0
   -9.1840   12.1781    4.7619 C   0  0  0  0  0  0  0  0  0  0  0  0
   -9.4332   10.6660    4.8927 C   0  0  0  0  0  0  0  0  0  0  0  0
   -8.3565   10.0549    5.7167 N   0  0  0  0  0  0  0  0  0  0  0  0
   -9.5279    9.9863    3.4939 C   0  0  0  0  0  0  0  0  0  0  0  0
  -10.3540    9.1030    3.3270 O   0  0  0  0  0  0  0  0  0  0  0  0
   -8.7597   10.3577    2.4781 N   0  0  0  0  0  0  0  0  0  0  0  0
  -10.0071   13.9787    3.8967 H   0  0  0  0  0  0  0  0  0  0  0  0
  -11.2312   12.9394    4.6234 H   0  0  0  0  0  0  0  0  0  0  0  0
  -10.4987   12.5043    3.0539 H   0  0  0  0  0  0  0  0  0  0  0  0
   -9.0363   12.6119    5.7531 H   0  0  0  0  0  0  0  0  0  0  0  0
   -8.2608   12.3296    4.1989 H   0  0  0  0  0  0  0  0  0  0  0  0
  -10.3957   10.5242    5.3884 H   0  0  0  0  0  0  0  0  0  0  0  0
   -7.5096   10.0679    5.1602 H   0  0  0  0  0  0  0  0  0  0  0  0
   -8.5680    9.0793    5.8743 H   0  0  0  0  0  0  0  0  0  0  0  0
   -8.2297   10.5548    6.5821 H   0  0  0  0  0  0  0  0  0  0  0  0
   -8.8977    9.8626    1.6068 H   0  0  0  0  0  0  0  0  0  0  0  0
   -8.0569   11.0770    2.5458 H   0  0  0  0  0  0  0  0  0  0  0  0
  1  2  1  0
  1  8  1  0
  1  9  1  0
  1 10  1  0
  2  3  1  0
  2 11  1  0
  2 12  1  0
  3  4  1  0
  3  5  1  0
  3 13  1  0
  4 14  1  0
  4 15  1  0
  4 16  1  0
  5  6  2  0
  5  7  1  0
  7 17  1  0
  7 18  1  0
M  CHG  1   4   1
M  END
> <intraLJ>
0.540     

> <intraEL>
2.536     

> <intraDihe>
1.167     

> <interLJ>
0.000     

> <interEJ>
0.000     

> <gridLJ>
-2.569    

> <gridEL>
0.000     

> <totalE>
1.674     

> <LGFE>
-2.569  

> <LE>
-0.367  

> <SMILES>
CCC([NH3+])C(N)=O

> <atom.dprop.GFE>
-0.21 -0.025 0.2 -0.19 0 -1.1 -1.3 0 0 0 0 0 0 0 0 0 0 0

> <atom.prop.CLASS>
PRPC PRPC PRPC MAMN NCLA GENA GEND NCLA NCLA NCLA NCLA NCLA NCLA NCLA NCLA NCLA NCLA NCLA

$$$$
