27_2
     RDKit          3D

 12 12  0  0  0  0  0  0  0  0999 V2000
   -0.6148   -1.4574  -20.3342 N   0  0  0  0  0  0  0  0  0  0  0  0
    0.6162   -1.4265  -19.8823 C   0  0  0  0  0  0  0  0  0  0  0  0
    1.0484   -0.6721  -18.8981 N   0  0  0  0  0  0  0  0  0  0  0  0
    2.3977   -0.9128  -18.7086 C   0  0  0  0  0  0  0  0  0  0  0  0
    2.7552   -1.8411  -19.6200 C   0  0  0  0  0  0  0  0  0  0  0  0
    1.6148   -2.1443  -20.3433 N   0  0  0  0  0  0  0  0  0  0  0  0
   -0.8647   -2.0801  -21.1116 H   0  0  0  0  0  0  0  0  0  0  0  0
   -1.3351   -0.8598  -19.9129 H   0  0  0  0  0  0  0  0  0  0  0  0
    0.4467   -0.0202  -18.3761 H   0  0  0  0  0  0  0  0  0  0  0  0
    2.9776   -0.4216  -17.9658 H   0  0  0  0  0  0  0  0  0  0  0  0
    3.6984   -2.2941  -19.8046 H   0  0  0  0  0  0  0  0  0  0  0  0
    1.5218   -2.8133  -21.1191 H   0  0  0  0  0  0  0  0  0  0  0  0
  1  2  2  0
  1  7  1  0
  1  8  1  0
  2  3  1  0
  2  6  1  0
  3  4  1  0
  3  9  1  0
  4  5  2  0
  4 10  1  0
  5  6  1  0
  5 11  1  0
  6 12  1  0
M  CHG  1   1   1
M  END
> <intraLJ>
-0.384    

> <intraEL>
3.349     

> <intraDihe>
0.000     

> <interLJ>
0.000     

> <interEJ>
0.000     

> <gridLJ>
-3.388    

> <gridEL>
0.000     

> <totalE>
-0.423    

> <LGFE>
-3.388  

> <LE>
-0.565  

> <SMILES>
[NH2+]=c1[nH]cc[nH]1

> <atom.dprop.GFE>
-1.7 -1.7 0 0.035 0.035 0 0 0 0 0 0 0

> <atom.prop.CLASS>
MAMN MAMC NCLA GEHC GEHC NCLA NCLA NCLA NCLA NCLA NCLA NCLA

$$$$
