71_1
     RDKit          3D

 18 18  0  0  0  0  0  0  0  0999 V2000
   25.5507    8.7080   -7.9174 C   0  0  0  0  0  0  0  0  0  0  0  0
   25.2308    8.3975   -9.3841 C   0  0  0  0  0  0  0  0  0  0  0  0
   23.8029    8.0827   -9.6303 N   0  0  0  0  0  0  0  0  0  0  0  0
   23.0678    7.3493   -8.5645 C   0  0  0  0  0  0  0  0  0  0  0  0
   23.8661    6.2118   -7.9113 C   0  0  0  0  0  0  0  0  0  0  0  0
   24.6129    6.6946   -6.7958 O   0  0  0  0  0  0  0  0  0  0  0  0
   25.7923    7.4275   -7.1026 C   0  0  0  0  0  0  0  0  0  0  0  0
   24.7550    9.3028   -7.4688 H   0  0  0  0  0  0  0  0  0  0  0  0
   26.4668    9.2953   -7.8914 H   0  0  0  0  0  0  0  0  0  0  0  0
   25.8494    7.5551   -9.6990 H   0  0  0  0  0  0  0  0  0  0  0  0
   25.5058    9.2555  -10.0016 H   0  0  0  0  0  0  0  0  0  0  0  0
   23.7130    7.6180  -10.5247 H   0  0  0  0  0  0  0  0  0  0  0  0
   22.1405    6.9509   -8.9785 H   0  0  0  0  0  0  0  0  0  0  0  0
   22.7927    8.0479   -7.7724 H   0  0  0  0  0  0  0  0  0  0  0  0
   24.5104    5.7229   -8.6429 H   0  0  0  0  0  0  0  0  0  0  0  0
   23.1536    5.4777   -7.5359 H   0  0  0  0  0  0  0  0  0  0  0  0
   26.2534    7.7130   -6.1553 H   0  0  0  0  0  0  0  0  0  0  0  0
   26.4992    6.7832   -7.6293 H   0  0  0  0  0  0  0  0  0  0  0  0
  1  2  1  0
  1  7  1  0
  1  8  1  0
  1  9  1  0
  2  3  1  0
  2 10  1  0
  2 11  1  0
  3  4  1  0
  3 12  1  0
  4  5  1  0
  4 13  1  0
  4 14  1  0
  5  6  1  0
  5 15  1  0
  5 16  1  0
  6  7  1  0
  7 17  1  0
  7 18  1  0
M  END
> <intraLJ>
0.655     

> <intraEL>
0.902     

> <intraDihe>
9.506     

> <interLJ>
0.000     

> <interEJ>
0.000     

> <gridLJ>
-3.834    

> <gridEL>
0.000     

> <totalE>
7.229     

> <LGFE>
-3.834  

> <LE>
-0.548  

> <SMILES>
C1CNCCOC1

> <atom.dprop.GFE>
-0.32 -0.34 -1 -0.4 -0.38 -1.1 -0.3 0 0 0 0 0 0 0 0 0 0 0

> <atom.prop.CLASS>
PRPC PRPC GEND PRPC PRPC GENA PRPC NCLA NCLA NCLA NCLA NCLA NCLA NCLA NCLA NCLA NCLA NCLA

$$$$
