49_1
     RDKit          3D

 18 18  0  0  1  0  0  0  0  0999 V2000
   16.1125   15.0320  -34.5310 O   0  0  0  0  0  0  0  0  0  0  0  0
   15.1502   16.0771  -34.4524 C   0  0  0  0  0  0  0  0  0  0  0  0
   14.5158   16.3387  -35.8268 C   0  0  0  0  0  0  0  0  0  0  0  0
   13.4670   17.4493  -35.8284 C   0  0  0  0  0  0  0  0  0  0  0  0
   12.5554   17.0919  -37.0170 C   0  0  0  0  0  0  0  0  0  0  0  0
   13.0518   15.7241  -37.4854 C   0  0  0  0  0  0  0  0  0  0  0  0
   13.7944   15.1687  -36.3453 N   0  0  0  0  0  0  0  0  0  0  0  0
   16.3062   14.7122  -33.6459 H   0  0  0  0  0  0  0  0  0  0  0  0
   14.3593   15.8072  -33.7517 H   0  0  0  0  0  0  0  0  0  0  0  0
   15.6379   16.9893  -34.1069 H   0  0  0  0  0  0  0  0  0  0  0  0
   15.3080   16.6153  -36.5261 H   0  0  0  0  0  0  0  0  0  0  0  0
   12.8868   17.4108  -34.9057 H   0  0  0  0  0  0  0  0  0  0  0  0
   13.9312   18.4283  -35.9523 H   0  0  0  0  0  0  0  0  0  0  0  0
   12.6427   17.8233  -37.8202 H   0  0  0  0  0  0  0  0  0  0  0  0
   11.5212   17.0165  -36.6795 H   0  0  0  0  0  0  0  0  0  0  0  0
   13.7303   15.8672  -38.3296 H   0  0  0  0  0  0  0  0  0  0  0  0
   12.2268   15.0744  -37.7844 H   0  0  0  0  0  0  0  0  0  0  0  0
   14.4356   14.4250  -36.5969 H   0  0  0  0  0  0  0  0  0  0  0  0
  1  2  1  0
  1  8  1  0
  2  3  1  0
  2  9  1  0
  2 10  1  0
  3  4  1  0
  3  7  1  0
  3 11  1  0
  4  5  1  0
  4 12  1  0
  4 13  1  0
  5  6  1  0
  5 14  1  0
  5 15  1  0
  6  7  1  0
  6 16  1  0
  6 17  1  0
  7 18  1  0
M  END
> <intraLJ>
0.316     

> <intraEL>
1.553     

> <intraDihe>
11.896    

> <interLJ>
0.000     

> <interEJ>
0.000     

> <gridLJ>
-2.415    

> <gridEL>
0.000     

> <totalE>
11.350    

> <LGFE>
-2.415  

> <LE>
-0.345  

> <SMILES>
OCC1CCCN1

> <atom.dprop.GFE>
-0.89 -0.42 -0.27 -0.16 -0.17 -0.16 -0.35 0 0 0 0 0 0 0 0 0 0 0

> <atom.prop.CLASS>
MEOO PRPC PRPC PRPC PRPC PRPC GEND NCLA NCLA NCLA NCLA NCLA NCLA NCLA NCLA NCLA NCLA NCLA

$$$$
