9_1
     RDKit          3D

 12 12  0  0  0  0  0  0  0  0999 V2000
   18.7189   -0.9138  -36.3933 O   0  0  0  0  0  0  0  0  0  0  0  0
   18.5752   -2.1505  -35.6354 C   0  0  0  0  0  0  0  0  0  0  0  0
   17.7985   -1.9743  -34.2993 C   0  0  0  0  0  0  0  0  0  0  0  0
   18.8606   -2.7872  -33.6557 N   0  0  0  0  0  0  0  0  0  0  0  0
   19.8136   -2.4794  -34.7547 C   0  0  0  0  0  0  0  0  0  0  0  0
   17.8619   -0.6424  -36.7586 H   0  0  0  0  0  0  0  0  0  0  0  0
   18.2315   -2.9728  -36.2474 H   0  0  0  0  0  0  0  0  0  0  0  0
   16.8271   -2.4479  -34.2953 H   0  0  0  0  0  0  0  0  0  0  0  0
   17.7884   -0.9501  -33.9508 H   0  0  0  0  0  0  0  0  0  0  0  0
   18.6288   -3.7821  -33.5910 H   0  0  0  0  0  0  0  0  0  0  0  0
   20.4244   -1.6113  -34.5462 H   0  0  0  0  0  0  0  0  0  0  0  0
   20.3747   -3.3384  -35.0965 H   0  0  0  0  0  0  0  0  0  0  0  0
  1  2  1  0
  1  6  1  0
  2  3  1  0
  2  5  1  0
  2  7  1  0
  3  4  1  0
  3  8  1  0
  3  9  1  0
  4  5  1  0
  4 10  1  0
  5 11  1  0
  5 12  1  0
M  END
> <intraLJ>
0.433     

> <intraEL>
3.457     

> <intraDihe>
10.151    

> <interLJ>
0.000     

> <interEJ>
0.000     

> <gridLJ>
-2.823    

> <gridEL>
0.000     

> <totalE>
11.217    

> <LGFE>
-2.823  

> <LE>
-0.565  

> <SMILES>
OC1CNC1

> <atom.dprop.GFE>
-1.1 -0.38 -0.49 -0.49 -0.33 0 0 0 0 0 0 0

> <atom.prop.CLASS>
MEOO PRPC PRPC GEND PRPC NCLA NCLA NCLA NCLA NCLA NCLA NCLA

$$$$
