45
     RDKit          3D

 13 13  0  0  0  0  0  0  0  0999 V2000
   17.3694   14.8194   -1.9987 O   0  0  0  0  0  0  0  0  0  0  0  0
   17.9261   15.2371   -3.1661 C   0  0  0  0  0  0  0  0  0  0  0  0
   17.4808   16.4270   -3.7322 C   0  0  0  0  0  0  0  0  0  0  0  0
   18.0440   16.8638   -4.9267 C   0  0  0  0  0  0  0  0  0  0  0  0
   19.0433   16.1112   -5.5441 C   0  0  0  0  0  0  0  0  0  0  0  0
   19.4814   14.9195   -4.9669 C   0  0  0  0  0  0  0  0  0  0  0  0
   18.9230   14.4762   -3.7714 C   0  0  0  0  0  0  0  0  0  0  0  0
   17.7696   13.9773   -1.7134 H   0  0  0  0  0  0  0  0  0  0  0  0
   16.7209   16.9881   -3.2522 H   0  0  0  0  0  0  0  0  0  0  0  0
   17.7137   17.7697   -5.3687 H   0  0  0  0  0  0  0  0  0  0  0  0
   19.4705   16.4465   -6.4544 H   0  0  0  0  0  0  0  0  0  0  0  0
   20.2406   14.3515   -5.4404 H   0  0  0  0  0  0  0  0  0  0  0  0
   19.2538   13.5721   -3.3320 H   0  0  0  0  0  0  0  0  0  0  0  0
  1  2  1  0
  1  8  1  0
  2  3  2  0
  2  7  1  0
  3  4  1  0
  3  9  1  0
  4  5  2  0
  4 10  1  0
  5  6  1  0
  5 11  1  0
  6  7  2  0
  6 12  1  0
  7 13  1  0
M  END
> <intraLJ>
11.192    

> <intraEL>
-0.882    

> <intraDihe>
0.000     

> <interLJ>
0.000     

> <interEJ>
0.000     

> <gridLJ>
-2.010    

> <gridEL>
0.000     

> <totalE>
8.300     

> <LGFE>
-2.010  

> <LE>
-0.287  

> <SMILES>
Oc1ccccc1

> <atom.dprop.GFE>
-0.39 -0.23 -0.21 -0.24 -0.31 -0.33 -0.3 0 0 0 0 0 0

> <atom.prop.CLASS>
MEOO BENC BENC BENC BENC BENC BENC NCLA NCLA NCLA NCLA NCLA NCLA

$$$$
