32
     RDKit          3D

 17 16  0  0  0  0  0  0  0  0999 V2000
   24.8348    3.1197  -28.7875 C   0  0  0  0  0  0  0  0  0  0  0  0
   23.4031    2.6488  -29.0316 C   0  0  0  0  0  0  0  0  0  0  0  0
   23.0603    1.4620  -28.1329 C   0  0  0  0  0  0  0  0  0  0  0  0
   23.3628    2.1685  -30.3989 N   0  0  0  0  0  0  0  0  0  0  0  0
   22.7668    2.7977  -31.4290 C   0  0  0  0  0  0  0  0  0  0  0  0
   22.4404    3.9640  -31.3523 O   0  0  0  0  0  0  0  0  0  0  0  0
   22.5316    2.0905  -32.5355 N   0  0  0  0  0  0  0  0  0  0  0  0
   24.9344    3.4738  -27.7619 H   0  0  0  0  0  0  0  0  0  0  0  0
   25.0698    3.9386  -29.4686 H   0  0  0  0  0  0  0  0  0  0  0  0
   25.5381    2.3034  -28.9533 H   0  0  0  0  0  0  0  0  0  0  0  0
   22.7158    3.4728  -28.8337 H   0  0  0  0  0  0  0  0  0  0  0  0
   23.7509    0.6377  -28.3110 H   0  0  0  0  0  0  0  0  0  0  0  0
   22.0446    1.1264  -28.3436 H   0  0  0  0  0  0  0  0  0  0  0  0
   23.1222    1.7627  -27.0877 H   0  0  0  0  0  0  0  0  0  0  0  0
   23.3886    1.1506  -30.5241 H   0  0  0  0  0  0  0  0  0  0  0  0
   21.9015    2.5398  -33.2089 H   0  0  0  0  0  0  0  0  0  0  0  0
   22.5295    1.0736  -32.4468 H   0  0  0  0  0  0  0  0  0  0  0  0
  1  2  1  0
  1  8  1  0
  1  9  1  0
  1 10  1  0
  2  3  1  0
  2  4  1  0
  2 11  1  0
  3 12  1  0
  3 13  1  0
  3 14  1  0
  4  5  1  0
  4 15  1  0
  5  6  2  0
  5  7  1  0
  7 16  1  0
  7 17  1  0
M  END
> <intraLJ>
-0.738    

> <intraEL>
-9.445    

> <intraDihe>
5.519     

> <interLJ>
0.000     

> <interEJ>
0.000     

> <gridLJ>
-3.659    

> <gridEL>
0.000     

> <totalE>
-8.322    

> <LGFE>
-3.659  

> <LE>
-0.523  

> <SMILES>
CC(C)NC(N)=O

> <atom.dprop.GFE>
-0.16 -0.23 -0.23 -0.68 0 -1.5 -0.87 0 0 0 0 0 0 0 0 0 0

> <atom.prop.CLASS>
PRPC PRPC PRPC GEND NCLA GENA GEND NCLA NCLA NCLA NCLA NCLA NCLA NCLA NCLA NCLA NCLA

$$$$
