63
     RDKit          3D

 11 11  0  0  0  0  0  0  0  0999 V2000
   16.3695    5.1141  -49.1108 O   0  0  0  0  0  0  0  0  0  0  0  0
   17.5213    4.8079  -49.3174 C   0  0  0  0  0  0  0  0  0  0  0  0
   18.6885    5.6797  -49.7398 C   0  0  0  0  0  0  0  0  0  0  0  0
   19.7346    4.6443  -49.7937 N   0  0  0  0  0  0  0  0  0  0  0  0
   19.2609    3.4253  -49.4668 C   0  0  0  0  0  0  0  0  0  0  0  0
   19.9012    2.3954  -49.4276 O   0  0  0  0  0  0  0  0  0  0  0  0
   17.9447    3.5364  -49.1862 N   0  0  0  0  0  0  0  0  0  0  0  0
   18.8949    6.4050  -48.9657 H   0  0  0  0  0  0  0  0  0  0  0  0
   18.4930    6.0915  -50.7210 H   0  0  0  0  0  0  0  0  0  0  0  0
   20.7266    4.7638  -50.0414 H   0  0  0  0  0  0  0  0  0  0  0  0
   17.3511    2.7508  -48.9109 H   0  0  0  0  0  0  0  0  0  0  0  0
  1  2  2  0
  2  3  1  0
  2  7  1  0
  3  4  1  0
  3  8  1  0
  3  9  1  0
  4  5  1  0
  4 10  1  0
  5  6  2  0
  5  7  1  0
  7 11  1  0
M  END
> <intraLJ>
-0.609    

> <intraEL>
-7.501    

> <intraDihe>
0.000     

> <interLJ>
0.000     

> <interEJ>
0.000     

> <gridLJ>
-2.715    

> <gridEL>
0.000     

> <totalE>
-10.825   

> <LGFE>
-2.715  

> <LE>
-0.388  

> <SMILES>
O=C1CNC(=O)N1

> <atom.dprop.GFE>
-0.37 -0.18 -0.35 -0.5 -0.22 -0.61 -0.49 0 0 0 0

> <atom.prop.CLASS>
GENA GEHC PRPC GEND GEHC GENA GEND NCLA NCLA NCLA NCLA

$$$$
