30_1
     RDKit          3D

 15 15  0  0  1  0  0  0  0  0999 V2000
  -35.3520    6.1812   14.5567 N   0  0  0  0  0  0  0  0  0  0  0  0
  -34.9870    7.3554   13.7195 C   0  0  0  0  0  0  0  0  0  0  0  0
  -33.5422    7.2219   13.2179 C   0  0  0  0  0  0  0  0  0  0  0  0
  -33.0751    8.6820   13.1022 C   0  0  0  0  0  0  0  0  0  0  0  0
  -33.8591    9.3790   14.1008 N   0  0  0  0  0  0  0  0  0  0  0  0
  -34.9476    8.7141   14.4433 C   0  0  0  0  0  0  0  0  0  0  0  0
  -35.7916    9.1266   15.2298 O   0  0  0  0  0  0  0  0  0  0  0  0
  -35.7382    5.4447   13.9838 H   0  0  0  0  0  0  0  0  0  0  0  0
  -36.0426    6.4851   15.2353 H   0  0  0  0  0  0  0  0  0  0  0  0
  -35.6536    7.4756   12.8636 H   0  0  0  0  0  0  0  0  0  0  0  0
  -32.9424    6.7143   13.9741 H   0  0  0  0  0  0  0  0  0  0  0  0
  -33.4893    6.6960   12.2659 H   0  0  0  0  0  0  0  0  0  0  0  0
  -33.3019    9.0745   12.1081 H   0  0  0  0  0  0  0  0  0  0  0  0
  -32.0040    8.7609   13.3041 H   0  0  0  0  0  0  0  0  0  0  0  0
  -33.6422   10.2850   14.4858 H   0  0  0  0  0  0  0  0  0  0  0  0
  1  2  1  0
  1  8  1  0
  1  9  1  0
  2  3  1  0
  2  6  1  0
  2 10  1  0
  3  4  1  0
  3 11  1  0
  3 12  1  0
  4  5  1  0
  4 13  1  0
  4 14  1  0
  5  6  1  0
  5 15  1  0
  6  7  2  0
M  END
> <intraLJ>
0.264     

> <intraEL>
2.285     

> <intraDihe>
8.139     

> <interLJ>
0.000     

> <interEJ>
0.000     

> <gridLJ>
-2.824    

> <gridEL>
0.000     

> <totalE>
7.865     

> <LGFE>
-2.824  

> <LE>
-0.403  

> <SMILES>
NC1CCNC1=O

> <atom.dprop.GFE>
-0.69 -0.25 -0.3 -0.33 -0.29 -0.19 -0.79 0 0 0 0 0 0 0 0

> <atom.prop.CLASS>
GEND PRPC PRPC PRPC GEND GEHC GENA NCLA NCLA NCLA NCLA NCLA NCLA NCLA NCLA

$$$$
