29_1
     RDKit          3D

 12 12  0  0  0  0  0  0  0  0999 V2000
    6.7813   16.3773    2.0522 N   0  0  0  0  0  0  0  0  0  0  0  0
    7.4796   16.5505    0.8639 C   0  0  0  0  0  0  0  0  0  0  0  0
    6.9586   17.0617   -0.2791 C   0  0  0  0  0  0  0  0  0  0  0  0
    8.1670   17.1151   -1.4988 S   0  0  0  0  0  0  0  0  0  0  0  0
    9.2460   16.4388   -0.3302 C   0  0  0  0  0  0  0  0  0  0  0  0
   10.5531   16.1830   -0.6539 N   0  0  0  0  0  0  0  0  0  0  0  0
    8.7828   16.1965    0.8572 N   0  0  0  0  0  0  0  0  0  0  0  0
    7.4783   16.2441    2.7970 H   0  0  0  0  0  0  0  0  0  0  0  0
    6.1802   17.1880    2.2367 H   0  0  0  0  0  0  0  0  0  0  0  0
    5.9658   17.3831   -0.4460 H   0  0  0  0  0  0  0  0  0  0  0  0
   11.1345   16.1265    0.1906 H   0  0  0  0  0  0  0  0  0  0  0  0
   10.9132   16.7911   -1.3983 H   0  0  0  0  0  0  0  0  0  0  0  0
  1  2  1  0
  1  8  1  0
  1  9  1  0
  2  3  2  0
  2  7  1  0
  3  4  1  0
  3 10  1  0
  4  5  1  0
  5  6  1  0
  5  7  2  0
  6 11  1  0
  6 12  1  0
M  END
> <intraLJ>
-0.273    

> <intraEL>
-13.389   

> <intraDihe>
3.347     

> <interLJ>
0.000     

> <interEJ>
0.000     

> <gridLJ>
-2.006    

> <gridEL>
0.000     

> <totalE>
-12.321   

> <LGFE>
-2.006  

> <LE>
-0.287  

> <SMILES>
Nc1csc(N)n1

> <atom.dprop.GFE>
-0.6 -0.1 -0.09 -0.25 0.0027 -0.37 -0.6 0 0 0 0 0

> <atom.prop.CLASS>
GEND GEHC GEHC PRPC GEHC GEND GENA NCLA NCLA NCLA NCLA NCLA

$$$$
