14_2
     RDKit          3D

 19 19  0  0  1  0  0  0  0  0999 V2000
    7.9726   -3.9286   -8.6598 C   0  0  0  0  0  0  0  0  0  0  0  0
    8.6223   -4.8529   -9.6097 N   0  0  0  0  0  0  0  0  0  0  0  0
    7.6764   -5.2899  -10.6444 C   0  0  0  0  0  0  0  0  0  0  0  0
    8.5905   -5.7200  -11.8085 C   0  0  0  0  0  0  0  0  0  0  0  0
    9.9871   -5.2380  -11.4057 C   0  0  0  0  0  0  0  0  0  0  0  0
   10.6518   -6.3107  -10.7545 O   0  0  0  0  0  0  0  0  0  0  0  0
    9.6888   -4.1690  -10.3481 C   0  0  0  0  0  0  0  0  0  0  0  0
    7.1787   -4.4649   -8.1534 H   0  0  0  0  0  0  0  0  0  0  0  0
    7.5736   -3.0849   -9.2116 H   0  0  0  0  0  0  0  0  0  0  0  0
    8.7194   -3.5988   -7.9457 H   0  0  0  0  0  0  0  0  0  0  0  0
    9.0410   -5.6697   -9.1629 H   0  0  0  0  0  0  0  0  0  0  0  0
    7.0878   -6.1353  -10.3038 H   0  0  0  0  0  0  0  0  0  0  0  0
    7.0680   -4.4547  -10.9740 H   0  0  0  0  0  0  0  0  0  0  0  0
    8.2666   -5.2321  -12.7293 H   0  0  0  0  0  0  0  0  0  0  0  0
    8.5684   -6.8023  -11.9366 H   0  0  0  0  0  0  0  0  0  0  0  0
   10.5645   -4.8732  -12.2591 H   0  0  0  0  0  0  0  0  0  0  0  0
   11.0475   -6.9006  -11.4075 H   0  0  0  0  0  0  0  0  0  0  0  0
    9.3136   -3.2760  -10.8338 H   0  0  0  0  0  0  0  0  0  0  0  0
   10.5658   -4.0098   -9.7307 H   0  0  0  0  0  0  0  0  0  0  0  0
  1  2  1  0
  1  8  1  0
  1  9  1  0
  1 10  1  0
  2  3  1  0
  2  7  1  0
  2 11  1  0
  3  4  1  0
  3 12  1  0
  3 13  1  0
  4  5  1  0
  4 14  1  0
  4 15  1  0
  5  6  1  0
  5  7  1  0
  5 16  1  0
  6 17  1  0
  7 18  1  0
  7 19  1  0
M  CHG  1   2   1
M  END
> <intraLJ>
3.793     

> <intraEL>
3.185     

> <intraDihe>
12.263    

> <interLJ>
0.000     

> <interEJ>
0.000     

> <gridLJ>
-2.414    

> <gridEL>
0.000     

> <totalE>
16.826    

> <LGFE>
-2.414  

> <LE>
-0.345  

> <SMILES>
C[NH+]1CCC(O)C1

> <atom.dprop.GFE>
0.064 -1.4 -0.13 -0.27 -0.28 -0.26 -0.14 0 0 0 0 0 0 0 0 0 0 0 0

> <atom.prop.CLASS>
PRPC MAMN PRPC PRPC PRPC MEOO PRPC NCLA NCLA NCLA NCLA NCLA NCLA NCLA NCLA NCLA NCLA NCLA NCLA

$$$$
