68_2
     RDKit          3D

 18 17  0  0  1  0  0  0  0  0999 V2000
   -0.0462   10.9655  -11.2643 C   0  0  0  0  0  0  0  0  0  0  0  0
   -0.8214   10.2737  -10.1474 C   0  0  0  0  0  0  0  0  0  0  0  0
   -2.2622   10.4307  -10.3930 N   0  0  0  0  0  0  0  0  0  0  0  0
   -0.4100   10.8352   -8.7772 C   0  0  0  0  0  0  0  0  0  0  0  0
    1.0526   10.5540   -8.4687 C   0  0  0  0  0  0  0  0  0  0  0  0
    1.4757    9.4079   -8.4514 O   0  0  0  0  0  0  0  0  0  0  0  0
    1.8483   11.5594   -8.1697 N   0  0  0  0  0  0  0  0  0  0  0  0
    1.0248   10.8238  -11.1134 H   0  0  0  0  0  0  0  0  0  0  0  0
   -0.2593   12.0357  -11.2775 H   0  0  0  0  0  0  0  0  0  0  0  0
   -0.3128   10.5333  -12.2298 H   0  0  0  0  0  0  0  0  0  0  0  0
   -0.5673    9.2081  -10.1571 H   0  0  0  0  0  0  0  0  0  0  0  0
   -2.5276   11.4025  -10.4011 H   0  0  0  0  0  0  0  0  0  0  0  0
   -2.7368    9.9685   -9.6113 H   0  0  0  0  0  0  0  0  0  0  0  0
   -2.5323    9.9825  -11.2549 H   0  0  0  0  0  0  0  0  0  0  0  0
   -1.0239   10.4036   -7.9878 H   0  0  0  0  0  0  0  0  0  0  0  0
   -0.5577   11.9155   -8.7782 H   0  0  0  0  0  0  0  0  0  0  0  0
    2.8094   11.3367   -7.9560 H   0  0  0  0  0  0  0  0  0  0  0  0
    1.5270   12.5130   -8.1594 H   0  0  0  0  0  0  0  0  0  0  0  0
  1  2  1  0
  1  8  1  0
  1  9  1  0
  1 10  1  0
  2  3  1  0
  2  4  1  0
  2 11  1  0
  3 12  1  0
  3 13  1  0
  3 14  1  0
  4  5  1  0
  4 15  1  0
  4 16  1  0
  5  6  2  0
  5  7  1  0
  7 17  1  0
  7 18  1  0
M  CHG  1   3   1
M  END
> <intraLJ>
1.099     

> <intraEL>
-7.825    

> <intraDihe>
0.101     

> <interLJ>
0.000     

> <interEJ>
0.000     

> <gridLJ>
-2.358    

> <gridEL>
0.000     

> <totalE>
-8.983    

> <LGFE>
-2.358  

> <LE>
-0.337  

> <SMILES>
CC([NH3+])CC(N)=O

> <atom.dprop.GFE>
-0.012 -0.061 -1.1 -0.027 0 -0.74 -0.42 0 0 0 0 0 0 0 0 0 0 0

> <atom.prop.CLASS>
PRPC PRPC MAMN PRPC NCLA GENA GEND NCLA NCLA NCLA NCLA NCLA NCLA NCLA NCLA NCLA NCLA NCLA

$$$$
