5
     RDKit          3D

 13 13  0  0  0  0  0  0  0  0999 V2000
  -27.3681    1.8328    4.9172 C   0  0  0  0  0  0  0  0  0  0  0  0
  -27.9733    1.1929    6.1686 C   0  0  0  0  0  0  0  0  0  0  0  0
  -27.4082    2.0205    7.3236 C   0  0  0  0  0  0  0  0  0  0  0  0
  -26.8511    3.1693    6.7189 O   0  0  0  0  0  0  0  0  0  0  0  0
  -26.3036    2.7665    5.4824 C   0  0  0  0  0  0  0  0  0  0  0  0
  -28.1245    2.4224    4.3964 H   0  0  0  0  0  0  0  0  0  0  0  0
  -26.9313    1.0899    4.2509 H   0  0  0  0  0  0  0  0  0  0  0  0
  -27.6596    0.1529    6.2663 H   0  0  0  0  0  0  0  0  0  0  0  0
  -29.0603    1.2635    6.1453 H   0  0  0  0  0  0  0  0  0  0  0  0
  -26.6220    1.4578    7.8313 H   0  0  0  0  0  0  0  0  0  0  0  0
  -28.1891    2.2943    8.0348 H   0  0  0  0  0  0  0  0  0  0  0  0
  -26.1312    3.6202    4.8256 H   0  0  0  0  0  0  0  0  0  0  0  0
  -25.3728    2.2205    5.6474 H   0  0  0  0  0  0  0  0  0  0  0  0
  1  2  1  0
  1  5  1  0
  1  6  1  0
  1  7  1  0
  2  3  1  0
  2  8  1  0
  2  9  1  0
  3  4  1  0
  3 10  1  0
  3 11  1  0
  4  5  1  0
  5 12  1  0
  5 13  1  0
M  END
> <intraLJ>
-0.357    

> <intraEL>
0.089     

> <intraDihe>
7.745     

> <interLJ>
0.000     

> <interEJ>
0.000     

> <gridLJ>
-2.406    

> <gridEL>
0.000     

> <totalE>
5.071     

> <LGFE>
-2.406  

> <LE>
-0.481  

> <SMILES>
C1CCOC1

> <atom.dprop.GFE>
-0.42 -0.38 -0.39 -0.86 -0.36 0 0 0 0 0 0 0 0

> <atom.prop.CLASS>
PRPC PRPC PRPC GENA PRPC NCLA NCLA NCLA NCLA NCLA NCLA NCLA NCLA

$$$$
