57_1
     RDKit          3D

 15 15  0  0  0  0  0  0  0  0999 V2000
   18.8141   -1.6038  -35.9189 O   0  0  0  0  0  0  0  0  0  0  0  0
   17.5302   -1.5167  -35.7121 C   0  0  0  0  0  0  0  0  0  0  0  0
   16.9280   -0.9870  -36.6058 O   0  0  0  0  0  0  0  0  0  0  0  0
   16.9380   -2.0663  -34.4265 C   0  0  0  0  0  0  0  0  0  0  0  0
   15.5001   -1.5495  -34.1366 C   0  0  0  0  0  0  0  0  0  0  0  0
   15.9379   -1.4574  -32.6446 C   0  0  0  0  0  0  0  0  0  0  0  0
   17.4026   -1.3044  -33.1535 C   0  0  0  0  0  0  0  0  0  0  0  0
   18.8882   -1.1904  -36.7807 H   0  0  0  0  0  0  0  0  0  0  0  0
   17.0412   -3.1428  -34.3580 H   0  0  0  0  0  0  0  0  0  0  0  0
   14.7235   -2.2774  -34.3264 H   0  0  0  0  0  0  0  0  0  0  0  0
   15.2952   -0.5776  -34.5670 H   0  0  0  0  0  0  0  0  0  0  0  0
   15.7789   -2.3832  -32.1065 H   0  0  0  0  0  0  0  0  0  0  0  0
   15.5574   -0.5877  -32.1266 H   0  0  0  0  0  0  0  0  0  0  0  0
   17.6688   -0.2715  -33.3384 H   0  0  0  0  0  0  0  0  0  0  0  0
   18.1337   -1.8387  -32.5615 H   0  0  0  0  0  0  0  0  0  0  0  0
  1  2  1  0
  1  8  1  0
  2  3  2  0
  2  4  1  0
  4  5  1  0
  4  7  1  0
  4  9  1  0
  5  6  1  0
  5 10  1  0
  5 11  1  0
  6  7  1  0
  6 12  1  0
  6 13  1  0
  7 14  1  0
  7 15  1  0
M  END
> <intraLJ>
-0.767    

> <intraEL>
-1.743    

> <intraDihe>
17.648    

> <interLJ>
0.000     

> <interEJ>
0.000     

> <gridLJ>
-3.700    

> <gridEL>
0.000     

> <totalE>
11.439    

> <LGFE>
-3.700  

> <LE>
-0.529  

> <SMILES>
O=C(O)C1CCC1

> <atom.dprop.GFE>
-1.1 0 -1 -0.49 -0.14 -0.49 -0.42 0 0 0 0 0 0 0 0

> <atom.prop.CLASS>
MEOO NCLA GENA PRPC PRPC PRPC PRPC NCLA NCLA NCLA NCLA NCLA NCLA NCLA NCLA

$$$$
