14_2
     RDKit          3D

 19 19  0  0  1  0  0  0  0  0999 V2000
   10.5141   13.1290  -40.0551 C   0  0  0  0  0  0  0  0  0  0  0  0
    9.9764   13.1893  -38.6817 N   0  0  0  0  0  0  0  0  0  0  0  0
    9.2447   14.4431  -38.4608 C   0  0  0  0  0  0  0  0  0  0  0  0
    8.3027   14.1077  -37.2878 C   0  0  0  0  0  0  0  0  0  0  0  0
    8.4155   12.5897  -37.1194 C   0  0  0  0  0  0  0  0  0  0  0  0
    9.4048   12.3287  -36.1347 O   0  0  0  0  0  0  0  0  0  0  0  0
    8.9781   12.1360  -38.4714 C   0  0  0  0  0  0  0  0  0  0  0  0
   11.2283   13.9352  -40.1757 H   0  0  0  0  0  0  0  0  0  0  0  0
    9.6937   13.2360  -40.7558 H   0  0  0  0  0  0  0  0  0  0  0  0
   11.0035   12.1698  -40.1840 H   0  0  0  0  0  0  0  0  0  0  0  0
   10.6889   13.0779  -37.9592 H   0  0  0  0  0  0  0  0  0  0  0  0
    9.9189   15.2443  -38.1771 H   0  0  0  0  0  0  0  0  0  0  0  0
    8.6415   14.6839  -39.3295 H   0  0  0  0  0  0  0  0  0  0  0  0
    7.2807   14.3906  -37.5451 H   0  0  0  0  0  0  0  0  0  0  0  0
    8.6136   14.6292  -36.3824 H   0  0  0  0  0  0  0  0  0  0  0  0
    7.4609   12.1276  -36.8550 H   0  0  0  0  0  0  0  0  0  0  0  0
    9.0197   12.3945  -35.2525 H   0  0  0  0  0  0  0  0  0  0  0  0
    8.1978   12.1853  -39.2216 H   0  0  0  0  0  0  0  0  0  0  0  0
    9.4400   11.1605  -38.3671 H   0  0  0  0  0  0  0  0  0  0  0  0
  1  2  1  0
  1  8  1  0
  1  9  1  0
  1 10  1  0
  2  3  1  0
  2  7  1  0
  2 11  1  0
  3  4  1  0
  3 12  1  0
  3 13  1  0
  4  5  1  0
  4 14  1  0
  4 15  1  0
  5  6  1  0
  5  7  1  0
  5 16  1  0
  6 17  1  0
  7 18  1  0
  7 19  1  0
M  CHG  1   2   1
M  END
> <intraLJ>
3.793     

> <intraEL>
3.185     

> <intraDihe>
12.263    

> <interLJ>
0.000     

> <interEJ>
0.000     

> <gridLJ>
-2.404    

> <gridEL>
0.000     

> <totalE>
16.837    

> <LGFE>
-2.404  

> <LE>
-0.343  

> <SMILES>
C[NH+]1CCC(O)C1

> <atom.dprop.GFE>
-0.2 -0.12 0.034 -0.19 -0.3 -1.5 -0.14 0 0 0 0 0 0 0 0 0 0 0 0

> <atom.prop.CLASS>
PRPC MAMN PRPC PRPC PRPC MEOO PRPC NCLA NCLA NCLA NCLA NCLA NCLA NCLA NCLA NCLA NCLA NCLA NCLA

$$$$
