67
     RDKit          3D

 15 15  0  0  1  0  0  0  0  0999 V2000
    5.3490   12.9376  -34.9568 O   0  0  0  0  0  0  0  0  0  0  0  0
    4.9209   12.7265  -36.3035 C   0  0  0  0  0  0  0  0  0  0  0  0
    5.7847   11.7238  -37.0639 C   0  0  0  0  0  0  0  0  0  0  0  0
    4.9661   11.3125  -38.1430 O   0  0  0  0  0  0  0  0  0  0  0  0
    3.6446   11.1754  -37.6347 C   0  0  0  0  0  0  0  0  0  0  0  0
    3.5421   12.0504  -36.3774 C   0  0  0  0  0  0  0  0  0  0  0  0
    3.3354   11.2490  -35.2261 O   0  0  0  0  0  0  0  0  0  0  0  0
    6.1809   13.4225  -34.9588 H   0  0  0  0  0  0  0  0  0  0  0  0
    4.8900   13.6675  -36.8553 H   0  0  0  0  0  0  0  0  0  0  0  0
    6.0129   10.8707  -36.4222 H   0  0  0  0  0  0  0  0  0  0  0  0
    6.7044   12.1855  -37.4250 H   0  0  0  0  0  0  0  0  0  0  0  0
    2.9191   11.4956  -38.3835 H   0  0  0  0  0  0  0  0  0  0  0  0
    3.4570   10.1334  -37.3695 H   0  0  0  0  0  0  0  0  0  0  0  0
    2.7526   12.7963  -36.4795 H   0  0  0  0  0  0  0  0  0  0  0  0
    3.9171   11.6346  -34.5530 H   0  0  0  0  0  0  0  0  0  0  0  0
  1  2  1  0
  1  8  1  0
  2  3  1  0
  2  6  1  0
  2  9  1  0
  3  4  1  0
  3 10  1  0
  3 11  1  0
  4  5  1  0
  5  6  1  0
  5 12  1  0
  5 13  1  0
  6  7  1  0
  6 14  1  0
  7 15  1  0
M  END
> <intraLJ>
4.089     

> <intraEL>
1.909     

> <intraDihe>
14.436    

> <interLJ>
0.000     

> <interEJ>
0.000     

> <gridLJ>
-2.064    

> <gridEL>
0.000     

> <totalE>
18.370    

> <LGFE>
-2.064  

> <LE>
-0.295  

> <SMILES>
OC1COCC1O

> <atom.dprop.GFE>
-0.29 -0.26 -0.25 -0.49 -0.23 -0.26 -0.29 0 0 0 0 0 0 0 0

> <atom.prop.CLASS>
MEOO PRPC PRPC GENA PRPC PRPC MEOO NCLA NCLA NCLA NCLA NCLA NCLA NCLA NCLA

$$$$
