28_1
     RDKit          3D

  9  9  0  0  0  0  0  0  0  0999 V2000
   17.0530   -4.3772   -6.6571 C   0  0  0  0  0  0  0  0  0  0  0  0
   18.1870   -3.9765   -6.0386 C   0  0  0  0  0  0  0  0  0  0  0  0
   19.0843   -3.7844   -7.0206 N   0  0  0  0  0  0  0  0  0  0  0  0
   18.4762   -4.0707   -8.1935 C   0  0  0  0  0  0  0  0  0  0  0  0
   17.2419   -4.4330   -8.0053 N   0  0  0  0  0  0  0  0  0  0  0  0
   16.1369   -4.6182   -6.1787 H   0  0  0  0  0  0  0  0  0  0  0  0
   18.4048   -3.8236   -5.0136 H   0  0  0  0  0  0  0  0  0  0  0  0
   20.0638   -3.4740   -6.9122 H   0  0  0  0  0  0  0  0  0  0  0  0
   18.9971   -3.9877   -9.1144 H   0  0  0  0  0  0  0  0  0  0  0  0
  1  2  2  0
  1  5  1  0
  1  6  1  0
  2  3  1  0
  2  7  1  0
  3  4  1  0
  3  8  1  0
  4  5  2  0
  4  9  1  0
M  END
> <intraLJ>
-0.307    

> <intraEL>
-0.294    

> <intraDihe>
0.000     

> <interLJ>
0.000     

> <interEJ>
0.000     

> <gridLJ>
-2.192    

> <gridEL>
0.000     

> <totalE>
-2.793    

> <LGFE>
-2.192  

> <LE>
-0.438  

> <SMILES>
c1c[nH]cn1

> <atom.dprop.GFE>
-0.22 -0.15 -0.55 -0.2 -1.1 0 0 0 0

> <atom.prop.CLASS>
GEHC GEHC GEND GEHC GENA NCLA NCLA NCLA NCLA

$$$$
