35_3
     RDKit          3D

 10 10  0  0  0  0  0  0  0  0999 V2000
   22.1620    1.9331  -32.4809 N   0  0  0  0  0  0  0  0  0  0  0  0
   22.8919    2.1852  -31.3366 C   0  0  0  0  0  0  0  0  0  0  0  0
   22.9166    3.3101  -30.7228 N   0  0  0  0  0  0  0  0  0  0  0  0
   23.7560    3.0668  -29.6862 C   0  0  0  0  0  0  0  0  0  0  0  0
   24.2424    1.8644  -29.6316 N   0  0  0  0  0  0  0  0  0  0  0  0
   23.6710    1.2938  -30.7065 N   0  0  0  0  0  0  0  0  0  0  0  0
   22.5772    1.2741  -33.1509 H   0  0  0  0  0  0  0  0  0  0  0  0
   21.8159    2.8073  -32.9049 H   0  0  0  0  0  0  0  0  0  0  0  0
   24.0009    3.8085  -28.9654 H   0  0  0  0  0  0  0  0  0  0  0  0
   23.7976    0.3128  -31.0009 H   0  0  0  0  0  0  0  0  0  0  0  0
  1  2  1  0
  1  7  1  0
  1  8  1  0
  2  3  2  0
  2  6  1  0
  3  4  1  0
  4  5  2  0
  4  9  1  0
  5  6  1  0
  6 10  1  0
M  END
> <intraLJ>
-0.206    

> <intraEL>
-6.323    

> <intraDihe>
2.580     

> <interLJ>
0.000     

> <interEJ>
0.000     

> <gridLJ>
-3.741    

> <gridEL>
0.000     

> <totalE>
-7.690    

> <LGFE>
-3.741  

> <LE>
-0.624  

> <SMILES>
Nc1ncn[nH]1

> <atom.dprop.GFE>
-0.87 -0.26 -1.5 -0.1 -0.39 -0.62 0 0 0 0

> <atom.prop.CLASS>
GEND GEHC GENA GEHC GENA GEND NCLA NCLA NCLA NCLA

$$$$
