10_1
     RDKit          3D

  8  7  0  0  0  0  0  0  0  0999 V2000
  -16.1500   -5.9139   -6.7129 O   0  0  0  0  0  0  0  0  0  0  0  0
  -16.3913   -7.3061   -7.0452 P   0  0  0  0  0  0  0  0  0  0  0  0
  -15.5081   -8.2350   -6.2452 O   0  0  0  0  0  0  0  0  0  0  0  0
  -17.8209   -7.7099   -6.7705 O   0  0  0  0  0  0  0  0  0  0  0  0
  -16.1239   -7.5890   -8.5046 O   0  0  0  0  0  0  0  0  0  0  0  0
  -14.9680   -7.6769   -5.6772 H   0  0  0  0  0  0  0  0  0  0  0  0
  -18.2650   -6.9269   -6.4264 H   0  0  0  0  0  0  0  0  0  0  0  0
  -15.8457   -6.7558   -8.8989 H   0  0  0  0  0  0  0  0  0  0  0  0
  1  2  2  0
  2  3  1  0
  2  4  1  0
  2  5  1  0
  3  6  1  0
  4  7  1  0
  5  8  1  0
M  END
> <intraLJ>
-0.194    

> <intraEL>
-23.203   

> <intraDihe>
5.381     

> <interLJ>
0.000     

> <interEJ>
0.000     

> <gridLJ>
-2.954    

> <gridEL>
0.000     

> <totalE>
-20.970   

> <LGFE>
-2.954  

> <LE>
-0.591  

> <SMILES>
O=P(O)(O)O

> <atom.dprop.GFE>
-1.5 0 -0.22 -0.45 -0.8 0 0 0

> <atom.prop.CLASS>
GENA NCLA MEOO MEOO MEOO NCLA NCLA NCLA

$$$$
