72_2
     RDKit          3D

 15 15  0  0  0  0  0  0  0  0999 V2000
  -14.3651    8.1842   20.4397 N   0  0  0  0  0  0  0  0  0  0  0  0
  -13.6657    8.6696   19.2624 C   0  0  0  0  0  0  0  0  0  0  0  0
  -13.8874    7.5338   18.2591 C   0  0  0  0  0  0  0  0  0  0  0  0
  -12.9355    6.3744   18.3435 C   0  0  0  0  0  0  0  0  0  0  0  0
  -12.8220    7.3739   17.2152 C   0  0  0  0  0  0  0  0  0  0  0  0
  -14.2093    8.8175   21.2105 H   0  0  0  0  0  0  0  0  0  0  0  0
  -14.0008    7.2622   20.6371 H   0  0  0  0  0  0  0  0  0  0  0  0
  -15.3461    8.1138   20.2132 H   0  0  0  0  0  0  0  0  0  0  0  0
  -12.6032    8.7688   19.4595 H   0  0  0  0  0  0  0  0  0  0  0  0
  -14.1153    9.5826   18.8843 H   0  0  0  0  0  0  0  0  0  0  0  0
  -14.9134    7.3499   17.9613 H   0  0  0  0  0  0  0  0  0  0  0  0
  -13.3235    5.3987   18.0707 H   0  0  0  0  0  0  0  0  0  0  0  0
  -12.1339    6.4024   19.0717 H   0  0  0  0  0  0  0  0  0  0  0  0
  -11.9692    8.0412   17.2454 H   0  0  0  0  0  0  0  0  0  0  0  0
  -13.1436    7.0308   16.2383 H   0  0  0  0  0  0  0  0  0  0  0  0
  1  2  1  0
  1  6  1  0
  1  7  1  0
  1  8  1  0
  2  3  1  0
  2  9  1  0
  2 10  1  0
  3  4  1  0
  3  5  1  0
  3 11  1  0
  4  5  1  0
  4 12  1  0
  4 13  1  0
  5 14  1  0
  5 15  1  0
M  CHG  1   1   1
M  END
> <intraLJ>
-0.133    

> <intraEL>
2.822     

> <intraDihe>
2.469     

> <interLJ>
0.000     

> <interEJ>
0.000     

> <gridLJ>
-2.427    

> <gridEL>
0.000     

> <totalE>
2.730     

> <LGFE>
-2.427  

> <LE>
-0.485  

> <SMILES>
[NH3+]CC1CC1

> <atom.dprop.GFE>
-2 0.04 -0.14 -0.16 -0.21 0 0 0 0 0 0 0 0 0 0

> <atom.prop.CLASS>
MAMN PRPC PRPC PRPC PRPC NCLA NCLA NCLA NCLA NCLA NCLA NCLA NCLA NCLA NCLA

$$$$
