7_1
     RDKit          3D

 14 14  0  0  1  0  0  0  0  0999 V2000
   16.8839   16.1089  -20.7337 O   0  0  0  0  0  0  0  0  0  0  0  0
   17.5367   14.9884  -20.9007 C   0  0  0  0  0  0  0  0  0  0  0  0
   16.8876   14.1349  -21.4501 O   0  0  0  0  0  0  0  0  0  0  0  0
   18.9921   14.8769  -20.4092 C   0  0  0  0  0  0  0  0  0  0  0  0
   19.6318   13.4770  -20.6242 C   0  0  0  0  0  0  0  0  0  0  0  0
   20.2269   13.6509  -19.1951 C   0  0  0  0  0  0  0  0  0  0  0  0
   19.1675   14.6500  -18.9444 N   0  0  0  0  0  0  0  0  0  0  0  0
   16.0308   15.8711  -21.0982 H   0  0  0  0  0  0  0  0  0  0  0  0
   19.5873   15.6993  -20.7842 H   0  0  0  0  0  0  0  0  0  0  0  0
   18.9150   12.6682  -20.6700 H   0  0  0  0  0  0  0  0  0  0  0  0
   20.3707   13.4481  -21.4132 H   0  0  0  0  0  0  0  0  0  0  0  0
   21.2161   14.0885  -19.2064 H   0  0  0  0  0  0  0  0  0  0  0  0
   20.1501   12.7655  -18.5801 H   0  0  0  0  0  0  0  0  0  0  0  0
   19.4573   15.4734  -18.4081 H   0  0  0  0  0  0  0  0  0  0  0  0
  1  2  1  0
  1  8  1  0
  2  3  2  0
  2  4  1  0
  4  5  1  0
  4  7  1  0
  4  9  1  0
  5  6  1  0
  5 10  1  0
  5 11  1  0
  6  7  1  0
  6 12  1  0
  6 13  1  0
  7 14  1  0
M  END
> <intraLJ>
-0.179    

> <intraEL>
2.369     

> <intraDihe>
12.551    

> <interLJ>
0.000     

> <interEJ>
0.000     

> <gridLJ>
-3.049    

> <gridEL>
0.000     

> <totalE>
11.693    

> <LGFE>
-3.049  

> <LE>
-0.436  

> <SMILES>
O=C(O)C1CCN1

> <atom.dprop.GFE>
-0.92 0 -0.9 -0.25 -0.19 -0.37 -0.42 0 0 0 0 0 0 0

> <atom.prop.CLASS>
MEOO NCLA GENA PRPC PRPC PRPC GEND NCLA NCLA NCLA NCLA NCLA NCLA NCLA

$$$$
