58
     RDKit          3D

 12 12  0  0  0  0  0  0  0  0999 V2000
  -20.4476    5.3508    6.4191 O   0  0  0  0  0  0  0  0  0  0  0  0
  -19.3599    5.4377    6.9559 C   0  0  0  0  0  0  0  0  0  0  0  0
  -18.2288    5.8336    6.3625 N   0  0  0  0  0  0  0  0  0  0  0  0
  -17.0708    5.6621    7.2294 C   0  0  0  0  0  0  0  0  0  0  0  0
  -17.7417    5.5270    8.6103 C   0  0  0  0  0  0  0  0  0  0  0  0
  -19.0985    5.1534    8.2359 N   0  0  0  0  0  0  0  0  0  0  0  0
  -18.2049    5.7919    5.3367 H   0  0  0  0  0  0  0  0  0  0  0  0
  -16.4023    6.5240    7.1979 H   0  0  0  0  0  0  0  0  0  0  0  0
  -16.5436    4.7411    6.9777 H   0  0  0  0  0  0  0  0  0  0  0  0
  -17.7423    6.4911    9.1221 H   0  0  0  0  0  0  0  0  0  0  0  0
  -17.2542    4.7582    9.2116 H   0  0  0  0  0  0  0  0  0  0  0  0
  -19.8989    5.1326    8.8777 H   0  0  0  0  0  0  0  0  0  0  0  0
  1  2  2  0
  2  3  1  0
  2  6  1  0
  3  4  1  0
  3  7  1  0
  4  5  1  0
  4  8  1  0
  4  9  1  0
  5  6  1  0
  5 10  1  0
  5 11  1  0
  6 12  1  0
M  END
> <intraLJ>
-0.226    

> <intraEL>
-6.154    

> <intraDihe>
4.218     

> <interLJ>
0.000     

> <interEJ>
0.000     

> <gridLJ>
-3.812    

> <gridEL>
0.000     

> <totalE>
-5.974    

> <LGFE>
-3.812  

> <LE>
-0.635  

> <SMILES>
O=C1NCCN1

> <atom.dprop.GFE>
-1.9 -0.27 -0.37 -0.58 -0.45 -0.27 0 0 0 0 0 0

> <atom.prop.CLASS>
GENA GEHC GEND PRPC PRPC GEND NCLA NCLA NCLA NCLA NCLA NCLA

$$$$
