48_1
     RDKit          3D

 17 16  0  0  1  0  0  0  0  0999 V2000
  -28.2232   -2.9175   31.5434 C   0  0  0  0  0  0  0  0  0  0  0  0
  -26.7767   -2.9121   32.0634 C   0  0  0  0  0  0  0  0  0  0  0  0
  -25.7511   -3.4196   31.0342 C   0  0  0  0  0  0  0  0  0  0  0  0
  -26.1034   -4.8124   30.6360 N   0  0  0  0  0  0  0  0  0  0  0  0
  -24.2850   -3.2885   31.5485 C   0  0  0  0  0  0  0  0  0  0  0  0
  -23.4758   -4.2031   31.4891 O   0  0  0  0  0  0  0  0  0  0  0  0
  -23.8808   -2.1194   32.0237 N   0  0  0  0  0  0  0  0  0  0  0  0
  -28.8897   -2.5230   32.3103 H   0  0  0  0  0  0  0  0  0  0  0  0
  -28.5311   -3.9351   31.2986 H   0  0  0  0  0  0  0  0  0  0  0  0
  -28.3000   -2.2978   30.6496 H   0  0  0  0  0  0  0  0  0  0  0  0
  -26.7132   -3.5282   32.9622 H   0  0  0  0  0  0  0  0  0  0  0  0
  -26.5121   -1.8903   32.3408 H   0  0  0  0  0  0  0  0  0  0  0  0
  -25.8193   -2.7617   30.1658 H   0  0  0  0  0  0  0  0  0  0  0  0
  -26.2680   -5.3504   31.4772 H   0  0  0  0  0  0  0  0  0  0  0  0
  -25.3325   -5.2342   30.1378 H   0  0  0  0  0  0  0  0  0  0  0  0
  -22.9213   -2.0650   32.3232 H   0  0  0  0  0  0  0  0  0  0  0  0
  -24.5104   -1.3389   32.0776 H   0  0  0  0  0  0  0  0  0  0  0  0
  1  2  1  0
  1  8  1  0
  1  9  1  0
  1 10  1  0
  2  3  1  0
  2 11  1  0
  2 12  1  0
  3  4  1  0
  3  5  1  0
  3 13  1  0
  4 14  1  0
  4 15  1  0
  5  6  2  0
  5  7  1  0
  7 16  1  0
  7 17  1  0
M  END
> <intraLJ>
0.874     

> <intraEL>
5.314     

> <intraDihe>
0.809     

> <interLJ>
0.000     

> <interEJ>
0.000     

> <gridLJ>
-2.272    

> <gridEL>
0.000     

> <totalE>
4.725     

> <LGFE>
-2.272  

> <LE>
-0.325  

> <SMILES>
CCC(N)C(N)=O

> <atom.dprop.GFE>
-0.2 -0.29 -0.3 -0.45 0 -0.68 -0.35 0 0 0 0 0 0 0 0 0 0

> <atom.prop.CLASS>
PRPC PRPC PRPC GEND NCLA GENA GEND NCLA NCLA NCLA NCLA NCLA NCLA NCLA NCLA NCLA NCLA

$$$$
