11_1
     RDKit          3D

 11 11  0  0  0  0  0  0  0  0999 V2000
    3.8460   -3.8064   -7.8547 O   0  0  0  0  0  0  0  0  0  0  0  0
    4.3119   -4.0880   -6.7690 C   0  0  0  0  0  0  0  0  0  0  0  0
    3.6902   -3.8992   -5.4233 C   0  0  0  0  0  0  0  0  0  0  0  0
    4.5529   -4.8658   -4.5851 C   0  0  0  0  0  0  0  0  0  0  0  0
    5.8245   -4.9611   -5.3093 O   0  0  0  0  0  0  0  0  0  0  0  0
    5.5127   -4.6498   -6.6351 N   0  0  0  0  0  0  0  0  0  0  0  0
    2.6514   -4.1960   -5.4310 H   0  0  0  0  0  0  0  0  0  0  0  0
    3.8735   -2.8836   -5.1068 H   0  0  0  0  0  0  0  0  0  0  0  0
    4.0855   -5.8518   -4.5520 H   0  0  0  0  0  0  0  0  0  0  0  0
    4.7074   -4.4881   -3.5729 H   0  0  0  0  0  0  0  0  0  0  0  0
    6.1327   -4.8585   -7.4322 H   0  0  0  0  0  0  0  0  0  0  0  0
  1  2  2  0
  2  3  1  0
  2  6  1  0
  3  4  1  0
  3  7  1  0
  3  8  1  0
  4  5  1  0
  4  9  1  0
  4 10  1  0
  5  6  1  0
  6 11  1  0
M  END
> <intraLJ>
-0.418    

> <intraEL>
-2.154    

> <intraDihe>
5.561     

> <interLJ>
0.000     

> <interEJ>
0.000     

> <gridLJ>
-2.127    

> <gridEL>
0.000     

> <totalE>
0.862     

> <LGFE>
-2.127  

> <LE>
-0.355  

> <SMILES>
O=C1CCON1

> <atom.dprop.GFE>
-0.44 -0.076 -0.29 -0.28 -0.54 -0.5 0 0 0 0 0

> <atom.prop.CLASS>
GENA GEHC PRPC PRPC GENA GEND NCLA NCLA NCLA NCLA NCLA

$$$$
