16
     RDKit          3D

 10 10  0  0  0  0  0  0  0  0999 V2000
    2.9568    8.0957  -28.0691 N   0  0  0  0  0  0  0  0  0  0  0  0
    2.6596    8.2615  -26.9860 C   0  0  0  0  0  0  0  0  0  0  0  0
    2.2709    8.4780  -25.5708 C   0  0  0  0  0  0  0  0  0  0  0  0
    2.3813    7.2805  -24.6720 C   0  0  0  0  0  0  0  0  0  0  0  0
    1.0251    7.7730  -25.1203 C   0  0  0  0  0  0  0  0  0  0  0  0
    2.4948    9.4573  -25.1704 H   0  0  0  0  0  0  0  0  0  0  0  0
    2.6506    7.4721  -23.6414 H   0  0  0  0  0  0  0  0  0  0  0  0
    2.7355    6.3594  -25.1201 H   0  0  0  0  0  0  0  0  0  0  0  0
    0.5074    7.1687  -25.8552 H   0  0  0  0  0  0  0  0  0  0  0  0
    0.4241    8.2819  -24.3779 H   0  0  0  0  0  0  0  0  0  0  0  0
  1  2  3  0
  2  3  1  0
  3  4  1  0
  3  5  1  0
  3  6  1  0
  4  5  1  0
  4  7  1  0
  4  8  1  0
  5  9  1  0
  5 10  1  0
M  END
> <intraLJ>
-0.168    

> <intraEL>
1.810     

> <intraDihe>
1.484     

> <interLJ>
0.000     

> <interEJ>
0.000     

> <gridLJ>
-2.182    

> <gridEL>
0.000     

> <totalE>
0.944     

> <LGFE>
-2.182  

> <LE>
-0.436  

> <SMILES>
N#CC1CC1

> <atom.dprop.GFE>
-1.3 0 -0.31 -0.29 -0.24 0 0 0 0 0

> <atom.prop.CLASS>
GENA NCLA PRPC PRPC PRPC NCLA NCLA NCLA NCLA NCLA

$$$$
