15_2
     RDKit          3D

 14 14  0  0  0  0  0  0  0  0999 V2000
  -16.3991  -22.9819   12.3657 N   0  0  0  0  0  0  0  0  0  0  0  0
  -15.3606  -22.1546   12.1915 C   0  0  0  0  0  0  0  0  0  0  0  0
  -14.0737  -22.5738   11.7966 C   0  0  0  0  0  0  0  0  0  0  0  0
  -13.0790  -21.6380   11.6463 C   0  0  0  0  0  0  0  0  0  0  0  0
  -13.3681  -20.2805   11.8903 C   0  0  0  0  0  0  0  0  0  0  0  0
  -14.6361  -19.9021   12.2740 C   0  0  0  0  0  0  0  0  0  0  0  0
  -15.6080  -20.8565   12.4162 N   0  0  0  0  0  0  0  0  0  0  0  0
  -17.3439  -22.6807   12.6551 H   0  0  0  0  0  0  0  0  0  0  0  0
  -16.2703  -23.9991   12.2073 H   0  0  0  0  0  0  0  0  0  0  0  0
  -13.8922  -23.6039   11.6221 H   0  0  0  0  0  0  0  0  0  0  0  0
  -12.0992  -21.9285   11.3499 H   0  0  0  0  0  0  0  0  0  0  0  0
  -12.6021  -19.5547   11.7752 H   0  0  0  0  0  0  0  0  0  0  0  0
  -14.9379  -18.9036   12.4775 H   0  0  0  0  0  0  0  0  0  0  0  0
  -16.5617  -20.5934   12.7025 H   0  0  0  0  0  0  0  0  0  0  0  0
  1  2  1  0
  1  8  1  0
  1  9  1  0
  2  3  2  0
  2  7  1  0
  3  4  1  0
  3 10  1  0
  4  5  2  0
  4 11  1  0
  5  6  1  0
  5 12  1  0
  6  7  2  0
  6 13  1  0
  7 14  1  0
M  CHG  1   7   1
M  END
> <intraLJ>
8.433     

> <intraEL>
1.228     

> <intraDihe>
0.000     

> <interLJ>
0.000     

> <interEJ>
0.000     

> <gridLJ>
-2.628    

> <gridEL>
0.000     

> <totalE>
7.032     

> <LGFE>
-2.628  

> <LE>
-0.375  

> <SMILES>
Nc1cccc[nH+]1

> <atom.dprop.GFE>
-0.36 -0.047 -0.065 -0.073 -0.033 -0.054 -2 0 0 0 0 0 0 0

> <atom.prop.CLASS>
GEND BENC BENC BENC BENC BENC MAMN NCLA NCLA NCLA NCLA NCLA NCLA NCLA

$$$$
