37_2
     RDKit          3D

 11 10  0  0  1  0  0  0  0  0999 V2000
   17.9648    5.0109  -49.0713 C   0  0  0  0  0  0  0  0  0  0  0  0
   18.0172    3.5337  -48.6449 C   0  0  0  0  0  0  0  0  0  0  0  0
   18.9309    2.8816  -49.5942 O   0  0  0  0  0  0  0  0  0  0  0  0
   16.6123    2.9107  -48.7803 C   0  0  0  0  0  0  0  0  0  0  0  0
   16.4494    2.0825  -49.7110 O   0  0  0  0  0  0  0  0  0  0  0  0
   15.7207    3.2775  -47.9821 O   0  0  0  0  0  0  0  0  0  0  0  0
   17.2748    5.5275  -48.4042 H   0  0  0  0  0  0  0  0  0  0  0  0
   17.6079    5.0554  -50.1011 H   0  0  0  0  0  0  0  0  0  0  0  0
   18.9701    5.4243  -48.9918 H   0  0  0  0  0  0  0  0  0  0  0  0
   18.3548    3.4464  -47.6227 H   0  0  0  0  0  0  0  0  0  0  0  0
   18.3353    2.3984  -50.2117 H   0  0  0  0  0  0  0  0  0  0  0  0
  1  2  1  0
  1  7  1  0
  1  8  1  0
  1  9  1  0
  2  3  1  0
  2  4  1  0
  2 10  1  0
  3 11  1  0
  4  5  2  0
  4  6  1  0
M  CHG  1   6  -1
M  END
> <intraLJ>
3.035     

> <intraEL>
3.834     

> <intraDihe>
3.247     

> <interLJ>
0.000     

> <interEJ>
0.000     

> <gridLJ>
-2.297    

> <gridEL>
0.000     

> <totalE>
7.819     

> <LGFE>
-2.297  

> <LE>
-0.383  

> <SMILES>
CC(O)C(=O)[O-]

> <atom.dprop.GFE>
-0.41 -0.41 -0.31 -1.2 0 0 0 0 0 0 0

> <atom.prop.CLASS>
PRPC PRPC MEOO ACEC NCLA NCLA NCLA NCLA NCLA NCLA NCLA

$$$$
