32
     RDKit          3D

 17 16  0  0  0  0  0  0  0  0999 V2000
  -33.4722   -3.4493   19.3985 C   0  0  0  0  0  0  0  0  0  0  0  0
  -32.9338   -4.8780   19.4004 C   0  0  0  0  0  0  0  0  0  0  0  0
  -32.1479   -5.1613   20.6794 C   0  0  0  0  0  0  0  0  0  0  0  0
  -31.9928   -4.9571   18.3003 N   0  0  0  0  0  0  0  0  0  0  0  0
  -32.2002   -5.6117   17.1425 C   0  0  0  0  0  0  0  0  0  0  0  0
  -33.3094   -5.9803   16.8160 O   0  0  0  0  0  0  0  0  0  0  0  0
  -31.1406   -5.8566   16.3699 N   0  0  0  0  0  0  0  0  0  0  0  0
  -34.1729   -3.3205   20.2229 H   0  0  0  0  0  0  0  0  0  0  0  0
  -33.9925   -3.2576   18.4592 H   0  0  0  0  0  0  0  0  0  0  0  0
  -32.6566   -2.7344   19.5080 H   0  0  0  0  0  0  0  0  0  0  0  0
  -33.7683   -5.5760   19.3173 H   0  0  0  0  0  0  0  0  0  0  0  0
  -31.3203   -4.4592   20.7809 H   0  0  0  0  0  0  0  0  0  0  0  0
  -31.7510   -6.1761   20.6463 H   0  0  0  0  0  0  0  0  0  0  0  0
  -32.8055   -5.0682   21.5429 H   0  0  0  0  0  0  0  0  0  0  0  0
  -30.9986   -4.9054   18.5481 H   0  0  0  0  0  0  0  0  0  0  0  0
  -31.3059   -6.5262   15.6105 H   0  0  0  0  0  0  0  0  0  0  0  0
  -30.2218   -5.8163   16.8129 H   0  0  0  0  0  0  0  0  0  0  0  0
  1  2  1  0
  1  8  1  0
  1  9  1  0
  1 10  1  0
  2  3  1  0
  2  4  1  0
  2 11  1  0
  3 12  1  0
  3 13  1  0
  3 14  1  0
  4  5  1  0
  4 15  1  0
  5  6  2  0
  5  7  1  0
  7 16  1  0
  7 17  1  0
M  END
> <intraLJ>
-0.728    

> <intraEL>
-9.447    

> <intraDihe>
5.511     

> <interLJ>
0.000     

> <interEJ>
0.000     

> <gridLJ>
-2.485    

> <gridEL>
0.000     

> <totalE>
-7.149    

> <LGFE>
-2.485  

> <LE>
-0.355  

> <SMILES>
CC(C)NC(N)=O

> <atom.dprop.GFE>
0.19 -0.18 -0.19 -0.8 0 -0.59 -0.92 0 0 0 0 0 0 0 0 0 0

> <atom.prop.CLASS>
PRPC PRPC PRPC GEND NCLA GENA GEND NCLA NCLA NCLA NCLA NCLA NCLA NCLA NCLA NCLA NCLA

$$$$
