51_2
     RDKit          3D

 12 12  0  0  0  0  0  0  0  0999 V2000
    1.5906   13.8690    9.3464 O   0  0  0  0  0  0  0  0  0  0  0  0
    0.4792   13.2086    9.0057 C   0  0  0  0  0  0  0  0  0  0  0  0
   -0.6104   12.8574    9.9621 C   0  0  0  0  0  0  0  0  0  0  0  0
   -1.3813   11.8741    9.0623 C   0  0  0  0  0  0  0  0  0  0  0  0
   -0.8845   12.2098    7.7195 N   0  0  0  0  0  0  0  0  0  0  0  0
    0.3362   12.8492    7.8146 N   0  0  0  0  0  0  0  0  0  0  0  0
    2.0456   13.9248    8.4851 H   0  0  0  0  0  0  0  0  0  0  0  0
   -1.1993   13.7429   10.1526 H   0  0  0  0  0  0  0  0  0  0  0  0
   -0.2103   12.3648   10.8350 H   0  0  0  0  0  0  0  0  0  0  0  0
   -2.4602   12.0219    9.1392 H   0  0  0  0  0  0  0  0  0  0  0  0
   -1.1100   10.8459    9.3092 H   0  0  0  0  0  0  0  0  0  0  0  0
   -0.9614   11.4855    6.9805 H   0  0  0  0  0  0  0  0  0  0  0  0
  1  2  1  0
  1  7  1  0
  2  3  1  0
  2  6  2  0
  3  4  1  0
  3  8  1  0
  3  9  1  0
  4  5  1  0
  4 10  1  0
  4 11  1  0
  5  6  1  0
  5 12  1  0
M  END
> <intraLJ>
-0.691    

> <intraEL>
-4.206    

> <intraDihe>
21.287    

> <interLJ>
0.000     

> <interEJ>
0.000     

> <gridLJ>
-2.369    

> <gridEL>
0.000     

> <totalE>
14.021    

> <LGFE>
-2.369  

> <LE>
-0.395  

> <SMILES>
OC1=NNCC1

> <atom.dprop.GFE>
-0.42 -0.19 -0.29 -0.3 -0.79 -0.39 0 0 0 0 0 0

> <atom.prop.CLASS>
MEOO GEHC PRPC PRPC GEND GENA NCLA NCLA NCLA NCLA NCLA NCLA

$$$$
