17_2
     RDKit          3D

 16 16  0  0  0  0  0  0  0  0999 V2000
  -11.1221    5.5744   16.4833 N   0  0  0  0  0  0  0  0  0  0  0  0
  -11.4951    6.7263   17.0711 C   0  0  0  0  0  0  0  0  0  0  0  0
  -12.5242    7.2314   16.6807 O   0  0  0  0  0  0  0  0  0  0  0  0
  -10.6997    7.4290   18.1968 C   0  0  0  0  0  0  0  0  0  0  0  0
  -11.1399    7.0769   19.5382 N   0  0  0  0  0  0  0  0  0  0  0  0
  -10.2228    8.8323   17.9984 C   0  0  0  0  0  0  0  0  0  0  0  0
   -9.2358    7.6779   18.0194 C   0  0  0  0  0  0  0  0  0  0  0  0
  -11.7193    5.2062   15.7574 H   0  0  0  0  0  0  0  0  0  0  0  0
  -10.2829    5.0817   16.7415 H   0  0  0  0  0  0  0  0  0  0  0  0
  -11.9478    6.3854   19.3602 H   0  0  0  0  0  0  0  0  0  0  0  0
  -11.4863    7.9603   20.0164 H   0  0  0  0  0  0  0  0  0  0  0  0
  -10.3314    6.6070   20.0413 H   0  0  0  0  0  0  0  0  0  0  0  0
  -10.2054    9.4911   18.8578 H   0  0  0  0  0  0  0  0  0  0  0  0
  -10.4123    9.2870   17.0334 H   0  0  0  0  0  0  0  0  0  0  0  0
   -8.7976    7.4014   17.0676 H   0  0  0  0  0  0  0  0  0  0  0  0
   -8.5978    7.6117   18.8917 H   0  0  0  0  0  0  0  0  0  0  0  0
  1  2  1  0
  1  8  1  0
  1  9  1  0
  2  3  2  0
  2  4  1  0
  4  5  1  0
  4  6  1  0
  4  7  1  0
  5 10  1  0
  5 11  1  0
  5 12  1  0
  6  7  1  0
  6 13  1  0
  6 14  1  0
  7 15  1  0
  7 16  1  0
M  CHG  1   5   1
M  END
> <intraLJ>
-0.439    

> <intraEL>
0.104     

> <intraDihe>
6.323     

> <interLJ>
0.000     

> <interEJ>
0.000     

> <gridLJ>
-2.464    

> <gridEL>
0.000     

> <totalE>
3.524     

> <LGFE>
-2.464  

> <LE>
-0.352  

> <SMILES>
NC(=O)C1([NH3+])CC1

> <atom.dprop.GFE>
-0.66 0 -0.44 0.0063 -1.5 0.043 0.066 0 0 0 0 0 0 0 0 0

> <atom.prop.CLASS>
GEND NCLA GENA PRPC MAMN PRPC PRPC NCLA NCLA NCLA NCLA NCLA NCLA NCLA NCLA NCLA

$$$$
