48_2
     RDKit          3D

 18 17  0  0  1  0  0  0  0  0999 V2000
    5.7414   16.0256  -10.5229 C   0  0  0  0  0  0  0  0  0  0  0  0
    6.8621   16.3243  -11.5358 C   0  0  0  0  0  0  0  0  0  0  0  0
    8.0101   17.1744  -10.9657 C   0  0  0  0  0  0  0  0  0  0  0  0
    8.9729   17.5004  -12.0512 N   0  0  0  0  0  0  0  0  0  0  0  0
    8.7178   16.4472   -9.7833 C   0  0  0  0  0  0  0  0  0  0  0  0
    9.0514   17.1024   -8.8087 O   0  0  0  0  0  0  0  0  0  0  0  0
    8.9411   15.1396   -9.7945 N   0  0  0  0  0  0  0  0  0  0  0  0
    5.0248   15.3350  -10.9754 H   0  0  0  0  0  0  0  0  0  0  0  0
    5.1994   16.9313  -10.2487 H   0  0  0  0  0  0  0  0  0  0  0  0
    6.1474   15.5515   -9.6269 H   0  0  0  0  0  0  0  0  0  0  0  0
    6.4349   16.8237  -12.4080 H   0  0  0  0  0  0  0  0  0  0  0  0
    7.2722   15.3708  -11.8745 H   0  0  0  0  0  0  0  0  0  0  0  0
    7.5821   18.0975  -10.5695 H   0  0  0  0  0  0  0  0  0  0  0  0
    9.4600   16.6434  -12.2867 H   0  0  0  0  0  0  0  0  0  0  0  0
    9.6788   18.1299  -11.6951 H   0  0  0  0  0  0  0  0  0  0  0  0
    8.5019   17.8827  -12.8555 H   0  0  0  0  0  0  0  0  0  0  0  0
    9.4010   14.7559   -8.9792 H   0  0  0  0  0  0  0  0  0  0  0  0
    8.6942   14.5394  -10.5657 H   0  0  0  0  0  0  0  0  0  0  0  0
  1  2  1  0
  1  8  1  0
  1  9  1  0
  1 10  1  0
  2  3  1  0
  2 11  1  0
  2 12  1  0
  3  4  1  0
  3  5  1  0
  3 13  1  0
  4 14  1  0
  4 15  1  0
  4 16  1  0
  5  6  2  0
  5  7  1  0
  7 17  1  0
  7 18  1  0
M  CHG  1   4   1
M  END
> <intraLJ>
0.509     

> <intraEL>
2.552     

> <intraDihe>
1.190     

> <interLJ>
0.000     

> <interEJ>
0.000     

> <gridLJ>
-2.335    

> <gridEL>
0.000     

> <totalE>
1.916     

> <LGFE>
-2.335  

> <LE>
-0.334  

> <SMILES>
CCC([NH3+])C(N)=O

> <atom.dprop.GFE>
-0.23 -0.17 -0.16 -0.42 0 -0.57 -0.78 0 0 0 0 0 0 0 0 0 0 0

> <atom.prop.CLASS>
PRPC PRPC PRPC MAMN NCLA GENA GEND NCLA NCLA NCLA NCLA NCLA NCLA NCLA NCLA NCLA NCLA NCLA

$$$$
