35_1
     RDKit          3D

 10 10  0  0  0  0  0  0  0  0999 V2000
   20.0564   -0.7845  -34.5469 N   0  0  0  0  0  0  0  0  0  0  0  0
   19.0332   -1.4974  -35.0825 C   0  0  0  0  0  0  0  0  0  0  0  0
   18.1418   -0.9389  -35.9087 N   0  0  0  0  0  0  0  0  0  0  0  0
   17.3680   -1.9283  -36.1844 C   0  0  0  0  0  0  0  0  0  0  0  0
   17.8019   -3.0207  -35.5476 N   0  0  0  0  0  0  0  0  0  0  0  0
   18.9024   -2.7480  -34.8287 N   0  0  0  0  0  0  0  0  0  0  0  0
   20.8206   -1.4370  -34.3526 H   0  0  0  0  0  0  0  0  0  0  0  0
   20.2985   -0.0340  -35.2004 H   0  0  0  0  0  0  0  0  0  0  0  0
   16.5098   -1.9504  -36.8062 H   0  0  0  0  0  0  0  0  0  0  0  0
   17.3555   -3.9529  -35.5989 H   0  0  0  0  0  0  0  0  0  0  0  0
  1  2  1  0
  1  7  1  0
  1  8  1  0
  2  3  1  0
  2  6  2  0
  3  4  2  0
  4  5  1  0
  4  9  1  0
  5  6  1  0
  5 10  1  0
M  END
> <intraLJ>
0.124     

> <intraEL>
-9.860    

> <intraDihe>
2.848     

> <interLJ>
0.000     

> <interEJ>
0.000     

> <gridLJ>
-2.875    

> <gridEL>
0.000     

> <totalE>
-9.763    

> <LGFE>
-2.875  

> <LE>
-0.479  

> <SMILES>
Nc1nc[nH]n1

> <atom.dprop.GFE>
-0.4 -0.1 -1.4 -0.038 -0.56 -0.41 0 0 0 0

> <atom.prop.CLASS>
GEND GEHC GENA GEHC GEND GENA NCLA NCLA NCLA NCLA

$$$$
