35_1
     RDKit          3D

 10 10  0  0  0  0  0  0  0  0999 V2000
  -24.1316  -14.0406   21.3865 N   0  0  0  0  0  0  0  0  0  0  0  0
  -24.3724  -14.5117   22.6364 C   0  0  0  0  0  0  0  0  0  0  0  0
  -25.5918  -14.4649   23.1843 N   0  0  0  0  0  0  0  0  0  0  0  0
  -25.3941  -15.0014   24.3362 C   0  0  0  0  0  0  0  0  0  0  0  0
  -24.1091  -15.3533   24.4461 N   0  0  0  0  0  0  0  0  0  0  0  0
  -23.4326  -15.0436   23.3286 N   0  0  0  0  0  0  0  0  0  0  0  0
  -23.3314  -14.5556   21.0099 H   0  0  0  0  0  0  0  0  0  0  0  0
  -24.9913  -14.1370   20.8383 H   0  0  0  0  0  0  0  0  0  0  0  0
  -26.0868  -15.1713   25.1202 H   0  0  0  0  0  0  0  0  0  0  0  0
  -23.6874  -15.8046   25.2764 H   0  0  0  0  0  0  0  0  0  0  0  0
  1  2  1  0
  1  7  1  0
  1  8  1  0
  2  3  1  0
  2  6  2  0
  3  4  2  0
  4  5  1  0
  4  9  1  0
  5  6  1  0
  5 10  1  0
M  END
> <intraLJ>
0.124     

> <intraEL>
-9.860    

> <intraDihe>
2.848     

> <interLJ>
0.000     

> <interEJ>
0.000     

> <gridLJ>
-2.271    

> <gridEL>
0.000     

> <totalE>
-9.159    

> <LGFE>
-2.271  

> <LE>
-0.379  

> <SMILES>
Nc1nc[nH]n1

> <atom.dprop.GFE>
-0.8 -0.13 -0.62 -0.11 -0.13 -0.47 0 0 0 0

> <atom.prop.CLASS>
GEND GEHC GENA GEHC GEND GENA NCLA NCLA NCLA NCLA

$$$$
