59_1
     RDKit          3D

 10  9  0  0  0  0  0  0  0  0999 V2000
  -16.8316    8.3578  -14.8295 C   0  0  0  0  0  0  0  0  0  0  0  0
  -15.4886    8.2900  -15.5236 C   0  0  0  0  0  0  0  0  0  0  0  0
  -14.6748    9.1568  -15.2657 O   0  0  0  0  0  0  0  0  0  0  0  0
  -15.2091    7.1941  -16.4747 C   0  0  0  0  0  0  0  0  0  0  0  0
  -14.1853    7.0766  -17.1205 O   0  0  0  0  0  0  0  0  0  0  0  0
  -16.0652    6.2169  -16.7164 O   0  0  0  0  0  0  0  0  0  0  0  0
  -16.9429    7.4398  -14.2693 H   0  0  0  0  0  0  0  0  0  0  0  0
  -17.5832    8.4324  -15.6038 H   0  0  0  0  0  0  0  0  0  0  0  0
  -16.8288    9.2257  -14.1848 H   0  0  0  0  0  0  0  0  0  0  0  0
  -15.5722    5.6873  -17.3709 H   0  0  0  0  0  0  0  0  0  0  0  0
  1  2  1  0
  1  7  1  0
  1  8  1  0
  1  9  1  0
  2  3  2  0
  2  4  1  0
  4  5  2  0
  4  6  1  0
  6 10  1  0
M  END
> <intraLJ>
-0.392    

> <intraEL>
0.001     

> <intraDihe>
2.122     

> <interLJ>
0.000     

> <interEJ>
0.000     

> <gridLJ>
-3.215    

> <gridEL>
0.000     

> <totalE>
-1.485    

> <LGFE>
-3.215  

> <LE>
-0.536  

> <SMILES>
CC(=O)C(=O)O

> <atom.dprop.GFE>
-0.46 0 -0.87 0 -1.1 -0.84 0 0 0 0

> <atom.prop.CLASS>
PRPC NCLA GENA NCLA GENA MEOO NCLA NCLA NCLA NCLA

$$$$
