44
     RDKit          3D

 10  9  0  0  0  0  0  0  0  0999 V2000
  -22.0926    4.0533   21.3792 N   0  0  0  0  0  0  0  0  0  0  0  0
  -23.0570    3.1536   21.4980 C   0  0  0  0  0  0  0  0  0  0  0  0
  -23.0793    2.4785   22.5126 O   0  0  0  0  0  0  0  0  0  0  0  0
  -24.0789    2.9934   20.4019 C   0  0  0  0  0  0  0  0  0  0  0  0
  -25.2935    3.6366   20.9291 C   0  0  0  0  0  0  0  0  0  0  0  0
  -26.2316    4.1452   21.3171 N   0  0  0  0  0  0  0  0  0  0  0  0
  -21.4556    4.1237   22.1569 H   0  0  0  0  0  0  0  0  0  0  0  0
  -22.0349    4.6773   20.5927 H   0  0  0  0  0  0  0  0  0  0  0  0
  -24.2810    1.9427   20.2531 H   0  0  0  0  0  0  0  0  0  0  0  0
  -23.7645    3.5308   19.5204 H   0  0  0  0  0  0  0  0  0  0  0  0
  1  2  1  0
  1  7  1  0
  1  8  1  0
  2  3  2  0
  2  4  1  0
  4  5  1  0
  4  9  1  0
  4 10  1  0
  5  6  3  0
M  END
> <intraLJ>
0.008     

> <intraEL>
-8.592    

> <intraDihe>
0.468     

> <interLJ>
0.000     

> <interEJ>
0.000     

> <gridLJ>
-4.441    

> <gridEL>
0.000     

> <totalE>
-12.557   

> <LGFE>
-4.441  

> <LE>
-0.740  

> <SMILES>
N#CCC(N)=O

> <atom.dprop.GFE>
-1.1 0 -1.9 -0.11 0 -1.3 0 0 0 0

> <atom.prop.CLASS>
GEND NCLA GENA PRPC NCLA GENA NCLA NCLA NCLA NCLA

$$$$
