48_2
     RDKit          3D

 18 17  0  0  1  0  0  0  0  0999 V2000
  -29.6314  -20.7874   19.6203 C   0  0  0  0  0  0  0  0  0  0  0  0
  -28.5941  -20.0185   18.7812 C   0  0  0  0  0  0  0  0  0  0  0  0
  -27.5075  -20.9113   18.1584 C   0  0  0  0  0  0  0  0  0  0  0  0
  -28.1386  -21.8876   17.2310 N   0  0  0  0  0  0  0  0  0  0  0  0
  -26.6731  -21.6348   19.2574 C   0  0  0  0  0  0  0  0  0  0  0  0
  -26.5164  -22.8426   19.1730 O   0  0  0  0  0  0  0  0  0  0  0  0
  -26.1086  -20.9749   20.2603 N   0  0  0  0  0  0  0  0  0  0  0  0
  -30.4191  -20.0978   19.9352 H   0  0  0  0  0  0  0  0  0  0  0  0
  -29.1829  -21.2097   20.5202 H   0  0  0  0  0  0  0  0  0  0  0  0
  -30.0937  -21.5810   19.0296 H   0  0  0  0  0  0  0  0  0  0  0  0
  -28.1264  -19.2515   19.4021 H   0  0  0  0  0  0  0  0  0  0  0  0
  -29.1254  -19.5068   17.9762 H   0  0  0  0  0  0  0  0  0  0  0  0
  -26.8225  -20.2697   17.6003 H   0  0  0  0  0  0  0  0  0  0  0  0
  -28.6428  -22.5580   17.7998 H   0  0  0  0  0  0  0  0  0  0  0  0
  -27.4177  -22.4145   16.7578 H   0  0  0  0  0  0  0  0  0  0  0  0
  -28.7549  -21.4282   16.5799 H   0  0  0  0  0  0  0  0  0  0  0  0
  -25.5808  -21.5294   20.9215 H   0  0  0  0  0  0  0  0  0  0  0  0
  -26.1984  -19.9797   20.3921 H   0  0  0  0  0  0  0  0  0  0  0  0
  1  2  1  0
  1  8  1  0
  1  9  1  0
  1 10  1  0
  2  3  1  0
  2 11  1  0
  2 12  1  0
  3  4  1  0
  3  5  1  0
  3 13  1  0
  4 14  1  0
  4 15  1  0
  4 16  1  0
  5  6  2  0
  5  7  1  0
  7 17  1  0
  7 18  1  0
M  CHG  1   4   1
M  END
> <intraLJ>
0.357     

> <intraEL>
1.543     

> <intraDihe>
0.660     

> <interLJ>
0.000     

> <interEJ>
0.000     

> <gridLJ>
-2.168    

> <gridEL>
0.000     

> <totalE>
0.393     

> <LGFE>
-2.168  

> <LE>
-0.310  

> <SMILES>
CCC([NH3+])C(N)=O

> <atom.dprop.GFE>
-0.028 -0.048 -0.037 -1.6 0 -0.27 -0.22 0 0 0 0 0 0 0 0 0 0 0

> <atom.prop.CLASS>
PRPC PRPC PRPC MAMN NCLA GENA GEND NCLA NCLA NCLA NCLA NCLA NCLA NCLA NCLA NCLA NCLA NCLA

$$$$
