51_2
     RDKit          3D

 12 12  0  0  0  0  0  0  0  0999 V2000
  -34.8561   -5.1073   25.1733 O   0  0  0  0  0  0  0  0  0  0  0  0
  -34.0126   -5.5441   24.2324 C   0  0  0  0  0  0  0  0  0  0  0  0
  -33.9934   -5.0401   22.8285 C   0  0  0  0  0  0  0  0  0  0  0  0
  -33.0823   -6.1227   22.2211 C   0  0  0  0  0  0  0  0  0  0  0  0
  -32.4318   -6.6984   23.4077 N   0  0  0  0  0  0  0  0  0  0  0  0
  -33.1888   -6.4379   24.5335 N   0  0  0  0  0  0  0  0  0  0  0  0
  -34.5714   -5.6392   25.9402 H   0  0  0  0  0  0  0  0  0  0  0  0
  -33.5035   -4.0772   22.8156 H   0  0  0  0  0  0  0  0  0  0  0  0
  -34.9824   -5.0677   22.3977 H   0  0  0  0  0  0  0  0  0  0  0  0
  -32.3523   -5.6923   21.5328 H   0  0  0  0  0  0  0  0  0  0  0  0
  -33.6841   -6.8858   21.7240 H   0  0  0  0  0  0  0  0  0  0  0  0
  -32.0487   -7.6596   23.3305 H   0  0  0  0  0  0  0  0  0  0  0  0
  1  2  1  0
  1  7  1  0
  2  3  1  0
  2  6  2  0
  3  4  1  0
  3  8  1  0
  3  9  1  0
  4  5  1  0
  4 10  1  0
  4 11  1  0
  5  6  1  0
  5 12  1  0
M  END
> <intraLJ>
-0.691    

> <intraEL>
-4.206    

> <intraDihe>
21.287    

> <interLJ>
0.000     

> <interEJ>
0.000     

> <gridLJ>
-2.205    

> <gridEL>
0.000     

> <totalE>
14.185    

> <LGFE>
-2.205  

> <LE>
-0.367  

> <SMILES>
OC1=NNCC1

> <atom.dprop.GFE>
-0.43 -0.15 -0.29 -0.32 -0.51 -0.51 0 0 0 0 0 0

> <atom.prop.CLASS>
MEOO GEHC PRPC PRPC GEND GENA NCLA NCLA NCLA NCLA NCLA NCLA

$$$$
