4
     RDKit          3D

 13 13  0  0  0  0  0  0  0  0999 V2000
   -1.4361   14.6155   -2.4425 O   0  0  0  0  0  0  0  0  0  0  0  0
   -2.2576   13.7526   -1.6341 C   0  0  0  0  0  0  0  0  0  0  0  0
   -3.3457   14.6829   -1.0755 C   0  0  0  0  0  0  0  0  0  0  0  0
   -2.9845   15.4605    0.1560 C   0  0  0  0  0  0  0  0  0  0  0  0
   -3.9328   14.2869    0.2471 C   0  0  0  0  0  0  0  0  0  0  0  0
   -0.6925   14.1219   -2.8245 H   0  0  0  0  0  0  0  0  0  0  0  0
   -1.6709   13.3354   -0.8267 H   0  0  0  0  0  0  0  0  0  0  0  0
   -2.7251   13.0017   -2.2586 H   0  0  0  0  0  0  0  0  0  0  0  0
   -3.9841   15.1512   -1.8137 H   0  0  0  0  0  0  0  0  0  0  0  0
   -3.4195   16.4477    0.2414 H   0  0  0  0  0  0  0  0  0  0  0  0
   -1.9865   15.3201    0.5512 H   0  0  0  0  0  0  0  0  0  0  0  0
   -3.5494   13.3910    0.7170 H   0  0  0  0  0  0  0  0  0  0  0  0
   -4.9781   14.5238    0.4003 H   0  0  0  0  0  0  0  0  0  0  0  0
  1  2  1  0
  1  6  1  0
  2  3  1  0
  2  7  1  0
  2  8  1  0
  3  4  1  0
  3  5  1  0
  3  9  1  0
  4  5  1  0
  4 10  1  0
  4 11  1  0
  5 12  1  0
  5 13  1  0
M  END
> <intraLJ>
-0.265    

> <intraEL>
1.552     

> <intraDihe>
2.184     

> <interLJ>
0.000     

> <interEJ>
0.000     

> <gridLJ>
-3.354    

> <gridEL>
0.000     

> <totalE>
0.117     

> <LGFE>
-3.354  

> <LE>
-0.671  

> <SMILES>
OCC1CC1

> <atom.dprop.GFE>
-0.73 -0.72 -0.66 -0.6 -0.66 0 0 0 0 0 0 0 0

> <atom.prop.CLASS>
MEOO PRPC PRPC PRPC PRPC NCLA NCLA NCLA NCLA NCLA NCLA NCLA NCLA

$$$$
