71_1
     RDKit          3D

 18 18  0  0  0  0  0  0  0  0999 V2000
  -19.7979   -6.4418   26.9570 C   0  0  0  0  0  0  0  0  0  0  0  0
  -18.3984   -5.9260   26.6025 C   0  0  0  0  0  0  0  0  0  0  0  0
  -18.3725   -4.5002   26.1965 N   0  0  0  0  0  0  0  0  0  0  0  0
  -19.5423   -3.9811   25.4374 C   0  0  0  0  0  0  0  0  0  0  0  0
  -20.0764   -4.9387   24.3624 C   0  0  0  0  0  0  0  0  0  0  0  0
  -21.0630   -5.8120   24.9090 O   0  0  0  0  0  0  0  0  0  0  0  0
  -20.5766   -6.8833   25.7077 C   0  0  0  0  0  0  0  0  0  0  0  0
  -20.3567   -5.6862   27.5093 H   0  0  0  0  0  0  0  0  0  0  0  0
  -19.6812   -7.3124   27.5998 H   0  0  0  0  0  0  0  0  0  0  0  0
  -18.0003   -6.5426   25.7946 H   0  0  0  0  0  0  0  0  0  0  0  0
  -17.7402   -6.0505   27.4653 H   0  0  0  0  0  0  0  0  0  0  0  0
  -17.5053   -4.3069   25.7120 H   0  0  0  0  0  0  0  0  0  0  0  0
  -19.2757   -3.0293   24.9758 H   0  0  0  0  0  0  0  0  0  0  0  0
  -20.3615   -3.7841   26.1311 H   0  0  0  0  0  0  0  0  0  0  0  0
  -19.2598   -5.4957   23.9017 H   0  0  0  0  0  0  0  0  0  0  0  0
  -20.5603   -4.3383   23.5923 H   0  0  0  0  0  0  0  0  0  0  0  0
  -21.4416   -7.4621   26.0371 H   0  0  0  0  0  0  0  0  0  0  0  0
  -19.9543   -7.5427   25.0993 H   0  0  0  0  0  0  0  0  0  0  0  0
  1  2  1  0
  1  7  1  0
  1  8  1  0
  1  9  1  0
  2  3  1  0
  2 10  1  0
  2 11  1  0
  3  4  1  0
  3 12  1  0
  4  5  1  0
  4 13  1  0
  4 14  1  0
  5  6  1  0
  5 15  1  0
  5 16  1  0
  6  7  1  0
  7 17  1  0
  7 18  1  0
M  END
> <intraLJ>
0.655     

> <intraEL>
0.902     

> <intraDihe>
9.506     

> <interLJ>
0.000     

> <interEJ>
0.000     

> <gridLJ>
-3.795    

> <gridEL>
0.000     

> <totalE>
7.268     

> <LGFE>
-3.795  

> <LE>
-0.542  

> <SMILES>
C1CNCCOC1

> <atom.dprop.GFE>
-0.32 -0.26 -1 -0.097 -0.27 -1.5 -0.34 0 0 0 0 0 0 0 0 0 0 0

> <atom.prop.CLASS>
PRPC PRPC GEND PRPC PRPC GENA PRPC NCLA NCLA NCLA NCLA NCLA NCLA NCLA NCLA NCLA NCLA NCLA

$$$$
