55
     RDKit          3D

  7  7  0  0  0  0  0  0  0  0999 V2000
  -39.4826   -2.2816   27.1046 C   0  0  0  0  0  0  0  0  0  0  0  0
  -40.0466   -2.9448   26.1687 N   0  0  0  0  0  0  0  0  0  0  0  0
  -41.0452   -2.1364   25.6886 N   0  0  0  0  0  0  0  0  0  0  0  0
  -40.9864   -1.0635   26.3818 C   0  0  0  0  0  0  0  0  0  0  0  0
  -40.0324   -1.1091   27.2724 O   0  0  0  0  0  0  0  0  0  0  0  0
  -38.6661   -2.5780   27.7144 H   0  0  0  0  0  0  0  0  0  0  0  0
  -41.5992   -0.2013   26.3034 H   0  0  0  0  0  0  0  0  0  0  0  0
  1  2  2  0
  1  5  1  0
  1  6  1  0
  2  3  1  0
  3  4  2  0
  4  5  1  0
  4  7  1  0
M  END
> <intraLJ>
-0.193    

> <intraEL>
-0.061    

> <intraDihe>
0.000     

> <interLJ>
0.000     

> <interEJ>
0.000     

> <gridLJ>
-2.334    

> <gridEL>
0.000     

> <totalE>
-2.587    

> <LGFE>
-2.334  

> <LE>
-0.467  

> <SMILES>
c1nnco1

> <atom.dprop.GFE>
-0.15 -0.71 -0.62 -0.14 -0.71 0 0

> <atom.prop.CLASS>
GEHC GENA GENA GEHC GENA NCLA NCLA

$$$$
