35_2
     RDKit          3D

 10 10  0  0  0  0  0  0  0  0999 V2000
  -11.2993    5.2384   16.4578 N   0  0  0  0  0  0  0  0  0  0  0  0
  -11.8599    6.4394   16.8515 C   0  0  0  0  0  0  0  0  0  0  0  0
  -12.6043    6.5611   17.9424 N   0  0  0  0  0  0  0  0  0  0  0  0
  -12.9704    7.8435   18.0085 C   0  0  0  0  0  0  0  0  0  0  0  0
  -12.4778    8.4837   17.0015 N   0  0  0  0  0  0  0  0  0  0  0  0
  -11.7570    7.5753   16.2423 N   0  0  0  0  0  0  0  0  0  0  0  0
  -10.5859    5.3826   15.7268 H   0  0  0  0  0  0  0  0  0  0  0  0
  -10.9943    4.6187   17.2191 H   0  0  0  0  0  0  0  0  0  0  0  0
  -12.8536    5.8007   18.5868 H   0  0  0  0  0  0  0  0  0  0  0  0
  -13.5783    8.2179   18.7919 H   0  0  0  0  0  0  0  0  0  0  0  0
  1  2  1  0
  1  7  1  0
  1  8  1  0
  2  3  1  0
  2  6  2  0
  3  4  1  0
  3  9  1  0
  4  5  2  0
  4 10  1  0
  5  6  1  0
M  END
> <intraLJ>
-0.237    

> <intraEL>
-7.007    

> <intraDihe>
2.733     

> <interLJ>
0.000     

> <interEJ>
0.000     

> <gridLJ>
-2.713    

> <gridEL>
0.000     

> <totalE>
-7.225    

> <LGFE>
-2.713  

> <LE>
-0.452  

> <SMILES>
Nc1nnc[nH]1

> <atom.dprop.GFE>
-0.66 -0.19 -0.82 -0.15 -0.44 -0.46 0 0 0 0

> <atom.prop.CLASS>
GEND GEHC GEND GEHC GENA GENA NCLA NCLA NCLA NCLA

$$$$
