7_1
     RDKit          3D

 14 14  0  0  1  0  0  0  0  0999 V2000
   19.6050    2.3502  -47.7780 O   0  0  0  0  0  0  0  0  0  0  0  0
   20.0555    3.0597  -48.7797 C   0  0  0  0  0  0  0  0  0  0  0  0
   20.7969    2.4459  -49.5043 O   0  0  0  0  0  0  0  0  0  0  0  0
   19.6154    4.5281  -48.9288 C   0  0  0  0  0  0  0  0  0  0  0  0
   18.0863    4.7177  -49.1312 C   0  0  0  0  0  0  0  0  0  0  0  0
   18.4712    5.7789  -50.2047 C   0  0  0  0  0  0  0  0  0  0  0  0
   19.7938    5.1252  -50.2851 N   0  0  0  0  0  0  0  0  0  0  0  0
   20.0604    1.5216  -47.9310 H   0  0  0  0  0  0  0  0  0  0  0  0
   20.0377    5.1368  -48.1398 H   0  0  0  0  0  0  0  0  0  0  0  0
   17.5907    3.8606  -49.5669 H   0  0  0  0  0  0  0  0  0  0  0  0
   17.5759    5.1228  -48.2683 H   0  0  0  0  0  0  0  0  0  0  0  0
   18.5268    6.7803  -49.7991 H   0  0  0  0  0  0  0  0  0  0  0  0
   17.8910    5.7097  -51.1139 H   0  0  0  0  0  0  0  0  0  0  0  0
   20.5930    5.7592  -50.3799 H   0  0  0  0  0  0  0  0  0  0  0  0
  1  2  1  0
  1  8  1  0
  2  3  2  0
  2  4  1  0
  4  5  1  0
  4  7  1  0
  4  9  1  0
  5  6  1  0
  5 10  1  0
  5 11  1  0
  6  7  1  0
  6 12  1  0
  6 13  1  0
  7 14  1  0
M  END
> <intraLJ>
-0.427    

> <intraEL>
2.655     

> <intraDihe>
12.705    

> <interLJ>
0.000     

> <interEJ>
0.000     

> <gridLJ>
-2.409    

> <gridEL>
0.000     

> <totalE>
12.523    

> <LGFE>
-2.409  

> <LE>
-0.344  

> <SMILES>
O=C(O)C1CCN1

> <atom.dprop.GFE>
-0.27 0 -0.5 -0.38 -0.41 -0.35 -0.5 0 0 0 0 0 0 0

> <atom.prop.CLASS>
MEOO NCLA GENA PRPC PRPC PRPC GEND NCLA NCLA NCLA NCLA NCLA NCLA NCLA

$$$$
