28_2
     RDKit          3D

 10 10  0  0  0  0  0  0  0  0999 V2000
  -29.1807    4.4657   -4.7146 C   0  0  0  0  0  0  0  0  0  0  0  0
  -30.3077    3.7209   -4.6730 C   0  0  0  0  0  0  0  0  0  0  0  0
  -30.5424    3.4391   -3.3523 N   0  0  0  0  0  0  0  0  0  0  0  0
  -29.5978    3.9884   -2.5992 C   0  0  0  0  0  0  0  0  0  0  0  0
  -28.7619    4.6162   -3.4182 N   0  0  0  0  0  0  0  0  0  0  0  0
  -28.6562    4.8897   -5.5399 H   0  0  0  0  0  0  0  0  0  0  0  0
  -30.9458    3.3766   -5.4557 H   0  0  0  0  0  0  0  0  0  0  0  0
  -31.3388    2.8797   -2.9760 H   0  0  0  0  0  0  0  0  0  0  0  0
  -29.5227    3.9351   -1.5349 H   0  0  0  0  0  0  0  0  0  0  0  0
  -27.9178    5.1409   -3.1025 H   0  0  0  0  0  0  0  0  0  0  0  0
  1  2  2  0
  1  5  1  0
  1  6  1  0
  2  3  1  0
  2  7  1  0
  3  4  2  0
  3  8  1  0
  4  5  1  0
  4  9  1  0
  5 10  1  0
M  CHG  1   3   1
M  END
> <intraLJ>
-0.306    

> <intraEL>
3.276     

> <intraDihe>
0.000     

> <interLJ>
0.000     

> <interEJ>
0.000     

> <gridLJ>
-1.981    

> <gridEL>
0.000     

> <totalE>
0.990     

> <LGFE>
-1.981  

> <LE>
-0.396  

> <SMILES>
c1c[nH+]c[nH]1

> <atom.dprop.GFE>
0.11 -0.022 0 -2.1 0 0 0 0 0 0

> <atom.prop.CLASS>
GEHC GEHC NCLA MAMC NCLA NCLA NCLA NCLA NCLA NCLA

$$$$
