17_1
     RDKit          3D

 15 15  0  0  0  0  0  0  0  0999 V2000
   15.0574   18.8424   -6.9969 N   0  0  0  0  0  0  0  0  0  0  0  0
   16.0740   18.4067   -6.2400 C   0  0  0  0  0  0  0  0  0  0  0  0
   17.0341   19.1391   -6.1357 O   0  0  0  0  0  0  0  0  0  0  0  0
   15.9297   17.0113   -5.5805 C   0  0  0  0  0  0  0  0  0  0  0  0
   14.6384   16.3310   -5.7274 N   0  0  0  0  0  0  0  0  0  0  0  0
   16.6559   16.7389   -4.3044 C   0  0  0  0  0  0  0  0  0  0  0  0
   17.1250   16.1175   -5.6079 C   0  0  0  0  0  0  0  0  0  0  0  0
   15.1417   19.7411   -7.4366 H   0  0  0  0  0  0  0  0  0  0  0  0
   14.2484   18.2526   -7.0949 H   0  0  0  0  0  0  0  0  0  0  0  0
   13.9430   16.8464   -5.1802 H   0  0  0  0  0  0  0  0  0  0  0  0
   14.7163   15.4036   -5.3020 H   0  0  0  0  0  0  0  0  0  0  0  0
   16.1760   16.0795   -3.5945 H   0  0  0  0  0  0  0  0  0  0  0  0
   17.2632   17.5441   -3.9104 H   0  0  0  0  0  0  0  0  0  0  0  0
   18.0262   16.5317   -6.0396 H   0  0  0  0  0  0  0  0  0  0  0  0
   16.9408   15.0611   -5.7451 H   0  0  0  0  0  0  0  0  0  0  0  0
  1  2  1  0
  1  8  1  0
  1  9  1  0
  2  3  2  0
  2  4  1  0
  4  5  1  0
  4  6  1  0
  4  7  1  0
  5 10  1  0
  5 11  1  0
  6  7  1  0
  6 12  1  0
  6 13  1  0
  7 14  1  0
  7 15  1  0
M  END
> <intraLJ>
3.001     

> <intraEL>
0.467     

> <intraDihe>
8.483     

> <interLJ>
0.000     

> <interEJ>
0.000     

> <gridLJ>
-2.246    

> <gridEL>
0.000     

> <totalE>
9.706     

> <LGFE>
-2.246  

> <LE>
-0.321  

> <SMILES>
NC(=O)C1(N)CC1

> <atom.dprop.GFE>
-0.36 0 -0.44 -0.28 -0.42 -0.29 -0.46 0 0 0 0 0 0 0 0

> <atom.prop.CLASS>
GEND NCLA GENA PRPC GEND PRPC PRPC NCLA NCLA NCLA NCLA NCLA NCLA NCLA NCLA

$$$$
