32
     RDKit          3D

 17 16  0  0  0  0  0  0  0  0999 V2000
   -7.0692  -11.4446    0.5019 C   0  0  0  0  0  0  0  0  0  0  0  0
   -6.1667  -10.6078    1.4054 C   0  0  0  0  0  0  0  0  0  0  0  0
   -5.3429  -11.5023    2.3300 C   0  0  0  0  0  0  0  0  0  0  0  0
   -7.0505   -9.8281    2.2497 N   0  0  0  0  0  0  0  0  0  0  0  0
   -7.1390   -8.4849    2.2553 C   0  0  0  0  0  0  0  0  0  0  0  0
   -6.6672   -7.8177    1.3581 O   0  0  0  0  0  0  0  0  0  0  0  0
   -7.7509   -7.9079    3.2909 N   0  0  0  0  0  0  0  0  0  0  0  0
   -6.4585  -12.0734   -0.1452 H   0  0  0  0  0  0  0  0  0  0  0  0
   -7.6767  -10.7841   -0.1181 H   0  0  0  0  0  0  0  0  0  0  0  0
   -7.7251  -12.0779    1.0994 H   0  0  0  0  0  0  0  0  0  0  0  0
   -5.5014  -10.0032    0.7871 H   0  0  0  0  0  0  0  0  0  0  0  0
   -5.9977  -12.1229    2.9419 H   0  0  0  0  0  0  0  0  0  0  0  0
   -4.7275  -10.8833    2.9832 H   0  0  0  0  0  0  0  0  0  0  0  0
   -4.6921  -12.1437    1.7367 H   0  0  0  0  0  0  0  0  0  0  0  0
   -7.2923  -10.2402    3.1576 H   0  0  0  0  0  0  0  0  0  0  0  0
   -7.6181   -6.8930    3.3597 H   0  0  0  0  0  0  0  0  0  0  0  0
   -7.8449   -8.4611    4.1436 H   0  0  0  0  0  0  0  0  0  0  0  0
  1  2  1  0
  1  8  1  0
  1  9  1  0
  1 10  1  0
  2  3  1  0
  2  4  1  0
  2 11  1  0
  3 12  1  0
  3 13  1  0
  3 14  1  0
  4  5  1  0
  4 15  1  0
  5  6  2  0
  5  7  1  0
  7 16  1  0
  7 17  1  0
M  END
> <intraLJ>
-0.665    

> <intraEL>
-9.456    

> <intraDihe>
5.470     

> <interLJ>
0.000     

> <interEJ>
0.000     

> <gridLJ>
-4.116    

> <gridEL>
0.000     

> <totalE>
-8.767    

> <LGFE>
-4.116  

> <LE>
-0.588  

> <SMILES>
CC(C)NC(N)=O

> <atom.dprop.GFE>
-0.2 -0.37 -0.33 -0.85 0 -1.3 -1.1 0 0 0 0 0 0 0 0 0 0

> <atom.prop.CLASS>
PRPC PRPC PRPC GEND NCLA GENA GEND NCLA NCLA NCLA NCLA NCLA NCLA NCLA NCLA NCLA NCLA

$$$$
