10_1
     RDKit          3D

  8  7  0  0  0  0  0  0  0  0999 V2000
   21.8463   14.5077   -3.8060 O   0  0  0  0  0  0  0  0  0  0  0  0
   22.6732   14.1709   -2.6615 P   0  0  0  0  0  0  0  0  0  0  0  0
   22.0220   14.5773   -1.3601 O   0  0  0  0  0  0  0  0  0  0  0  0
   22.9394   12.6862   -2.5778 O   0  0  0  0  0  0  0  0  0  0  0  0
   24.0165   14.8591   -2.7180 O   0  0  0  0  0  0  0  0  0  0  0  0
   21.1790   14.9799   -1.5903 H   0  0  0  0  0  0  0  0  0  0  0  0
   22.4865   12.2844   -3.3276 H   0  0  0  0  0  0  0  0  0  0  0  0
   24.0229   15.3821   -3.5264 H   0  0  0  0  0  0  0  0  0  0  0  0
  1  2  2  0
  2  3  1  0
  2  4  1  0
  2  5  1  0
  3  6  1  0
  4  7  1  0
  5  8  1  0
M  END
> <intraLJ>
-0.194    

> <intraEL>
-23.203   

> <intraDihe>
5.381     

> <interLJ>
0.000     

> <interEJ>
0.000     

> <gridLJ>
-2.279    

> <gridEL>
0.000     

> <totalE>
-20.295   

> <LGFE>
-2.279  

> <LE>
-0.456  

> <SMILES>
O=P(O)(O)O

> <atom.dprop.GFE>
-1 0 -0.41 -0.54 -0.29 0 0 0

> <atom.prop.CLASS>
GENA NCLA MEOO MEOO MEOO NCLA NCLA NCLA

$$$$
