9_1
     RDKit          3D

 12 12  0  0  0  0  0  0  0  0999 V2000
    9.9944    9.1033  -40.7414 O   0  0  0  0  0  0  0  0  0  0  0  0
   10.1935    8.2601  -41.9136 C   0  0  0  0  0  0  0  0  0  0  0  0
   11.3654    7.2489  -41.7604 C   0  0  0  0  0  0  0  0  0  0  0  0
   11.7996    7.6530  -43.1211 N   0  0  0  0  0  0  0  0  0  0  0  0
   11.0546    8.9356  -43.0179 C   0  0  0  0  0  0  0  0  0  0  0  0
    9.6381    8.5786  -40.0071 H   0  0  0  0  0  0  0  0  0  0  0  0
    9.2707    7.8246  -42.2710 H   0  0  0  0  0  0  0  0  0  0  0  0
   11.0451    6.2187  -41.6952 H   0  0  0  0  0  0  0  0  0  0  0  0
   12.0725    7.5376  -40.9941 H   0  0  0  0  0  0  0  0  0  0  0  0
   11.4452    7.0401  -43.8602 H   0  0  0  0  0  0  0  0  0  0  0  0
   11.6660    9.7439  -42.6396 H   0  0  0  0  0  0  0  0  0  0  0  0
   10.4980    9.1876  -43.9104 H   0  0  0  0  0  0  0  0  0  0  0  0
  1  2  1  0
  1  6  1  0
  2  3  1  0
  2  5  1  0
  2  7  1  0
  3  4  1  0
  3  8  1  0
  3  9  1  0
  4  5  1  0
  4 10  1  0
  5 11  1  0
  5 12  1  0
M  END
> <intraLJ>
0.433     

> <intraEL>
3.457     

> <intraDihe>
10.151    

> <interLJ>
0.000     

> <interEJ>
0.000     

> <gridLJ>
-2.129    

> <gridEL>
0.000     

> <totalE>
11.912    

> <LGFE>
-2.129  

> <LE>
-0.426  

> <SMILES>
OC1CNC1

> <atom.dprop.GFE>
-0.87 -0.11 -0.25 -0.73 -0.17 0 0 0 0 0 0 0

> <atom.prop.CLASS>
MEOO PRPC PRPC GEND PRPC NCLA NCLA NCLA NCLA NCLA NCLA NCLA

$$$$
