53
     RDKit          3D

 16 16  0  0  0  0  0  0  0  0999 V2000
    4.8934   -2.0810  -30.6047 O   0  0  0  0  0  0  0  0  0  0  0  0
    4.2850   -1.0277  -30.5072 C   0  0  0  0  0  0  0  0  0  0  0  0
    3.3382   -0.5311  -31.5973 C   0  0  0  0  0  0  0  0  0  0  0  0
    3.5369    0.9751  -31.8882 C   0  0  0  0  0  0  0  0  0  0  0  0
    3.8713    1.8039  -30.6201 C   0  0  0  0  0  0  0  0  0  0  0  0
    3.6980    1.0034  -29.3208 C   0  0  0  0  0  0  0  0  0  0  0  0
    4.4561   -0.2292  -29.4611 N   0  0  0  0  0  0  0  0  0  0  0  0
    2.3189   -0.6982  -31.2508 H   0  0  0  0  0  0  0  0  0  0  0  0
    3.4998   -1.1111  -32.5065 H   0  0  0  0  0  0  0  0  0  0  0  0
    2.6325    1.3668  -32.3574 H   0  0  0  0  0  0  0  0  0  0  0  0
    4.3594    1.0878  -32.5979 H   0  0  0  0  0  0  0  0  0  0  0  0
    3.2409    2.6934  -30.5842 H   0  0  0  0  0  0  0  0  0  0  0  0
    4.9111    2.1292  -30.6808 H   0  0  0  0  0  0  0  0  0  0  0  0
    2.6414    0.7804  -29.1589 H   0  0  0  0  0  0  0  0  0  0  0  0
    4.0730    1.5863  -28.4767 H   0  0  0  0  0  0  0  0  0  0  0  0
    5.1027   -0.5321  -28.7515 H   0  0  0  0  0  0  0  0  0  0  0  0
  1  2  2  0
  2  3  1  0
  2  7  1  0
  3  4  1  0
  3  8  1  0
  3  9  1  0
  4  5  1  0
  4 10  1  0
  4 11  1  0
  5  6  1  0
  5 12  1  0
  5 13  1  0
  6  7  1  0
  6 14  1  0
  6 15  1  0
  7 16  1  0
M  END
> <intraLJ>
0.344     

> <intraEL>
-2.405    

> <intraDihe>
10.947    

> <interLJ>
0.000     

> <interEJ>
0.000     

> <gridLJ>
-2.230    

> <gridEL>
0.000     

> <totalE>
6.655     

> <LGFE>
-2.230  

> <LE>
-0.319  

> <SMILES>
O=C1CCCCN1

> <atom.dprop.GFE>
-0.25 0 -0.29 -0.27 -0.16 -0.43 -0.83 0 0 0 0 0 0 0 0 0

> <atom.prop.CLASS>
GENA NCLA PRPC PRPC PRPC PRPC GEND NCLA NCLA NCLA NCLA NCLA NCLA NCLA NCLA NCLA

$$$$
