53
     RDKit          3D

 16 16  0  0  0  0  0  0  0  0999 V2000
  -24.9835    4.1722    6.7482 O   0  0  0  0  0  0  0  0  0  0  0  0
  -25.9807    3.4891    6.5806 C   0  0  0  0  0  0  0  0  0  0  0  0
  -27.1729    3.5425    7.5330 C   0  0  0  0  0  0  0  0  0  0  0  0
  -27.7024    2.1287    7.8701 C   0  0  0  0  0  0  0  0  0  0  0  0
  -27.6225    1.1445    6.6735 C   0  0  0  0  0  0  0  0  0  0  0  0
  -27.2636    1.8394    5.3518 C   0  0  0  0  0  0  0  0  0  0  0  0
  -26.0588    2.6205    5.5804 N   0  0  0  0  0  0  0  0  0  0  0  0
  -27.9612    4.1137    7.0439 H   0  0  0  0  0  0  0  0  0  0  0  0
  -26.8805    4.0591    8.4478 H   0  0  0  0  0  0  0  0  0  0  0  0
  -28.7357    2.2106    8.2124 H   0  0  0  0  0  0  0  0  0  0  0  0
  -27.1082    1.7199    8.6902 H   0  0  0  0  0  0  0  0  0  0  0  0
  -28.5737    0.6224    6.5615 H   0  0  0  0  0  0  0  0  0  0  0  0
  -26.8521    0.4011    6.8849 H   0  0  0  0  0  0  0  0  0  0  0  0
  -28.0822    2.4910    5.0393 H   0  0  0  0  0  0  0  0  0  0  0  0
  -27.0890    1.0894    4.5773 H   0  0  0  0  0  0  0  0  0  0  0  0
  -25.2649    2.5542    4.9649 H   0  0  0  0  0  0  0  0  0  0  0  0
  1  2  2  0
  2  3  1  0
  2  7  1  0
  3  4  1  0
  3  8  1  0
  3  9  1  0
  4  5  1  0
  4 10  1  0
  4 11  1  0
  5  6  1  0
  5 12  1  0
  5 13  1  0
  6  7  1  0
  6 14  1  0
  6 15  1  0
  7 16  1  0
M  END
> <intraLJ>
0.344     

> <intraEL>
-2.405    

> <intraDihe>
10.947    

> <interLJ>
0.000     

> <interEJ>
0.000     

> <gridLJ>
-3.023    

> <gridEL>
0.000     

> <totalE>
5.862     

> <LGFE>
-3.023  

> <LE>
-0.432  

> <SMILES>
O=C1CCCCN1

> <atom.dprop.GFE>
-0.87 0 -0.34 -0.37 -0.39 -0.42 -0.64 0 0 0 0 0 0 0 0 0

> <atom.prop.CLASS>
GENA NCLA PRPC PRPC PRPC PRPC GEND NCLA NCLA NCLA NCLA NCLA NCLA NCLA NCLA NCLA

$$$$
