46_1
     RDKit          3D

 14 14  0  0  0  0  0  0  0  0999 V2000
   22.4321   13.0870  -18.3118 C   0  0  0  0  0  0  0  0  0  0  0  0
   23.3486   12.1488  -17.5080 C   0  0  0  0  0  0  0  0  0  0  0  0
   22.3918   11.3159  -16.6575 C   0  0  0  0  0  0  0  0  0  0  0  0
   21.1073   11.3544  -17.3688 N   0  0  0  0  0  0  0  0  0  0  0  0
   21.0252   12.7468  -17.8284 C   0  0  0  0  0  0  0  0  0  0  0  0
   22.5153   12.8563  -19.3742 H   0  0  0  0  0  0  0  0  0  0  0  0
   22.6641   14.1366  -18.1281 H   0  0  0  0  0  0  0  0  0  0  0  0
   24.0412   12.7060  -16.8757 H   0  0  0  0  0  0  0  0  0  0  0  0
   23.8934   11.4957  -18.1904 H   0  0  0  0  0  0  0  0  0  0  0  0
   22.2855   11.7927  -15.6799 H   0  0  0  0  0  0  0  0  0  0  0  0
   22.7534   10.2931  -16.5288 H   0  0  0  0  0  0  0  0  0  0  0  0
   20.3219   11.0723  -16.7953 H   0  0  0  0  0  0  0  0  0  0  0  0
   20.2858   12.8681  -18.6230 H   0  0  0  0  0  0  0  0  0  0  0  0
   20.7728   13.3984  -16.9882 H   0  0  0  0  0  0  0  0  0  0  0  0
  1  2  1  0
  1  5  1  0
  1  6  1  0
  1  7  1  0
  2  3  1  0
  2  8  1  0
  2  9  1  0
  3  4  1  0
  3 10  1  0
  3 11  1  0
  4  5  1  0
  4 12  1  0
  5 13  1  0
  5 14  1  0
M  END
> <intraLJ>
-0.383    

> <intraEL>
0.415     

> <intraDihe>
8.071     

> <interLJ>
0.000     

> <interEJ>
0.000     

> <gridLJ>
-2.109    

> <gridEL>
0.000     

> <totalE>
5.993     

> <LGFE>
-2.109  

> <LE>
-0.422  

> <SMILES>
C1CCNC1

> <atom.dprop.GFE>
-0.39 -0.38 -0.43 -0.44 -0.48 0 0 0 0 0 0 0 0 0

> <atom.prop.CLASS>
PRPC PRPC PRPC GEND PRPC NCLA NCLA NCLA NCLA NCLA NCLA NCLA NCLA NCLA

$$$$
