60_2
     RDKit          3D

 14 14  0  0  0  0  0  0  0  0999 V2000
    2.3018   -2.4078   -8.1267 N   0  0  0  0  0  0  0  0  0  0  0  0
    2.2795   -1.8981   -9.3684 C   0  0  0  0  0  0  0  0  0  0  0  0
    2.9886   -0.7251   -9.6544 C   0  0  0  0  0  0  0  0  0  0  0  0
    2.9541   -0.2157  -10.9340 C   0  0  0  0  0  0  0  0  0  0  0  0
    2.2330   -0.8599  -11.8961 N   0  0  0  0  0  0  0  0  0  0  0  0
    1.5344   -2.0051  -11.6421 C   0  0  0  0  0  0  0  0  0  0  0  0
    1.5471   -2.5416  -10.3733 C   0  0  0  0  0  0  0  0  0  0  0  0
    1.7871   -3.2727   -7.8865 H   0  0  0  0  0  0  0  0  0  0  0  0
    2.8340   -1.9526   -7.3635 H   0  0  0  0  0  0  0  0  0  0  0  0
    3.5407   -0.2438   -8.8882 H   0  0  0  0  0  0  0  0  0  0  0  0
    3.4581    0.6671  -11.2489 H   0  0  0  0  0  0  0  0  0  0  0  0
    2.2154   -0.4663  -12.8563 H   0  0  0  0  0  0  0  0  0  0  0  0
    1.0103   -2.4179  -12.4703 H   0  0  0  0  0  0  0  0  0  0  0  0
    1.0130   -3.4290  -10.1498 H   0  0  0  0  0  0  0  0  0  0  0  0
  1  2  1  0
  1  8  1  0
  1  9  1  0
  2  3  2  0
  2  7  1  0
  3  4  1  0
  3 10  1  0
  4  5  2  0
  4 11  1  0
  5  6  1  0
  5 12  1  0
  6  7  2  0
  6 13  1  0
  7 14  1  0
M  CHG  1   5   1
M  END
> <intraLJ>
8.489     

> <intraEL>
2.031     

> <intraDihe>
0.000     

> <interLJ>
0.000     

> <interEJ>
0.000     

> <gridLJ>
-2.122    

> <gridEL>
0.000     

> <totalE>
8.398     

> <LGFE>
-2.122  

> <LE>
-0.303  

> <SMILES>
Nc1cc[nH+]cc1

> <atom.dprop.GFE>
-0.82 -0.018 -0.081 -0.11 -1 -0.04 -0.037 0 0 0 0 0 0 0

> <atom.prop.CLASS>
GEND BENC BENC BENC MAMN BENC BENC NCLA NCLA NCLA NCLA NCLA NCLA NCLA

$$$$
