17_1
     RDKit          3D

 15 15  0  0  0  0  0  0  0  0999 V2000
   -4.6668   -6.9276    1.6910 N   0  0  0  0  0  0  0  0  0  0  0  0
   -4.9195   -7.6725    2.7760 C   0  0  0  0  0  0  0  0  0  0  0  0
   -6.0840   -7.8495    3.0616 O   0  0  0  0  0  0  0  0  0  0  0  0
   -3.7047   -8.2270    3.5634 C   0  0  0  0  0  0  0  0  0  0  0  0
   -2.3736   -7.9945    2.9928 N   0  0  0  0  0  0  0  0  0  0  0  0
   -3.8612   -9.5014    4.3260 C   0  0  0  0  0  0  0  0  0  0  0  0
   -3.7754   -8.1714    5.0535 C   0  0  0  0  0  0  0  0  0  0  0  0
   -5.4447   -6.5554    1.1768 H   0  0  0  0  0  0  0  0  0  0  0  0
   -3.7073   -6.7704    1.4329 H   0  0  0  0  0  0  0  0  0  0  0  0
   -2.2899   -8.5562    2.1406 H   0  0  0  0  0  0  0  0  0  0  0  0
   -1.6773   -8.3552    3.6502 H   0  0  0  0  0  0  0  0  0  0  0  0
   -2.9972  -10.1484    4.3887 H   0  0  0  0  0  0  0  0  0  0  0  0
   -4.8372   -9.9690    4.2942 H   0  0  0  0  0  0  0  0  0  0  0  0
   -4.6969   -7.7968    5.4782 H   0  0  0  0  0  0  0  0  0  0  0  0
   -2.8549   -7.9543    5.5775 H   0  0  0  0  0  0  0  0  0  0  0  0
  1  2  1  0
  1  8  1  0
  1  9  1  0
  2  3  2  0
  2  4  1  0
  4  5  1  0
  4  6  1  0
  4  7  1  0
  5 10  1  0
  5 11  1  0
  6  7  1  0
  6 12  1  0
  6 13  1  0
  7 14  1  0
  7 15  1  0
M  END
> <intraLJ>
3.008     

> <intraEL>
0.472     

> <intraDihe>
8.472     

> <interLJ>
0.000     

> <interEJ>
0.000     

> <gridLJ>
-2.386    

> <gridEL>
0.000     

> <totalE>
9.566     

> <LGFE>
-2.386  

> <LE>
-0.341  

> <SMILES>
NC(=O)C1(N)CC1

> <atom.dprop.GFE>
-0.63 0 -1.3 -0.014 -0.3 -0.077 -0.025 0 0 0 0 0 0 0 0

> <atom.prop.CLASS>
GEND NCLA GENA PRPC GEND PRPC PRPC NCLA NCLA NCLA NCLA NCLA NCLA NCLA NCLA

$$$$
