32
     RDKit          3D

 17 16  0  0  0  0  0  0  0  0999 V2000
   10.3751   -7.9832  -28.4236 C   0  0  0  0  0  0  0  0  0  0  0  0
   10.5883   -9.4927  -28.3385 C   0  0  0  0  0  0  0  0  0  0  0  0
   11.3233   -9.8664  -27.0526 C   0  0  0  0  0  0  0  0  0  0  0  0
   11.4629   -9.8405  -29.4412 N   0  0  0  0  0  0  0  0  0  0  0  0
   11.0860  -10.4826  -30.5627 C   0  0  0  0  0  0  0  0  0  0  0  0
    9.9158  -10.5886  -30.8661 O   0  0  0  0  0  0  0  0  0  0  0  0
   12.0434  -11.0141  -31.3247 N   0  0  0  0  0  0  0  0  0  0  0  0
    9.7392   -7.6559  -27.6016 H   0  0  0  0  0  0  0  0  0  0  0  0
    9.8872   -7.7372  -29.3676 H   0  0  0  0  0  0  0  0  0  0  0  0
   11.3296   -7.4596  -28.3671 H   0  0  0  0  0  0  0  0  0  0  0  0
    9.6197   -9.9941  -28.3695 H   0  0  0  0  0  0  0  0  0  0  0  0
   12.2865   -9.3585  -27.0034 H   0  0  0  0  0  0  0  0  0  0  0  0
   11.4881  -10.9438  -27.0267 H   0  0  0  0  0  0  0  0  0  0  0  0
   10.7226   -9.5811  -26.1898 H   0  0  0  0  0  0  0  0  0  0  0  0
   12.4467  -10.0100  -29.2049 H   0  0  0  0  0  0  0  0  0  0  0  0
   11.7100  -11.6610  -32.0477 H   0  0  0  0  0  0  0  0  0  0  0  0
   12.9516  -11.1745  -30.8872 H   0  0  0  0  0  0  0  0  0  0  0  0
  1  2  1  0
  1  8  1  0
  1  9  1  0
  1 10  1  0
  2  3  1  0
  2  4  1  0
  2 11  1  0
  3 12  1  0
  3 13  1  0
  3 14  1  0
  4  5  1  0
  4 15  1  0
  5  6  2  0
  5  7  1  0
  7 16  1  0
  7 17  1  0
M  END
> <intraLJ>
-0.742    

> <intraEL>
-9.444    

> <intraDihe>
5.523     

> <interLJ>
0.000     

> <interEJ>
0.000     

> <gridLJ>
-2.085    

> <gridEL>
0.000     

> <totalE>
-6.748    

> <LGFE>
-2.085  

> <LE>
-0.298  

> <SMILES>
CC(C)NC(N)=O

> <atom.dprop.GFE>
-0.26 -0.39 -0.33 -0.3 0 -0.63 -0.17 0 0 0 0 0 0 0 0 0 0

> <atom.prop.CLASS>
PRPC PRPC PRPC GEND NCLA GENA GEND NCLA NCLA NCLA NCLA NCLA NCLA NCLA NCLA NCLA NCLA

$$$$
