32
     RDKit          3D

 17 16  0  0  0  0  0  0  0  0999 V2000
  -33.9340    8.5193   12.9256 C   0  0  0  0  0  0  0  0  0  0  0  0
  -34.3628    8.6494   14.3852 C   0  0  0  0  0  0  0  0  0  0  0  0
  -33.2189    8.2702   15.3239 C   0  0  0  0  0  0  0  0  0  0  0  0
  -35.4153    7.6728   14.5861 N   0  0  0  0  0  0  0  0  0  0  0  0
  -36.6610    7.9465   15.0168 C   0  0  0  0  0  0  0  0  0  0  0  0
  -37.0792    9.0851   15.0555 O   0  0  0  0  0  0  0  0  0  0  0  0
  -37.4182    6.9233   15.4159 N   0  0  0  0  0  0  0  0  0  0  0  0
  -33.1237    9.2175   12.7180 H   0  0  0  0  0  0  0  0  0  0  0  0
  -34.7781    8.7541   12.2759 H   0  0  0  0  0  0  0  0  0  0  0  0
  -33.5934    7.5049   12.7173 H   0  0  0  0  0  0  0  0  0  0  0  0
  -34.6732    9.6775   14.5776 H   0  0  0  0  0  0  0  0  0  0  0  0
  -32.8897    7.2493   15.1298 H   0  0  0  0  0  0  0  0  0  0  0  0
  -33.5559    8.3443   16.3580 H   0  0  0  0  0  0  0  0  0  0  0  0
  -32.3815    8.9514   15.1767 H   0  0  0  0  0  0  0  0  0  0  0  0
  -35.1138    6.7248   14.8370 H   0  0  0  0  0  0  0  0  0  0  0  0
  -38.2701    7.1886   15.9219 H   0  0  0  0  0  0  0  0  0  0  0  0
  -36.9382    6.0561   15.6603 H   0  0  0  0  0  0  0  0  0  0  0  0
  1  2  1  0
  1  8  1  0
  1  9  1  0
  1 10  1  0
  2  3  1  0
  2  4  1  0
  2 11  1  0
  3 12  1  0
  3 13  1  0
  3 14  1  0
  4  5  1  0
  4 15  1  0
  5  6  2  0
  5  7  1  0
  7 16  1  0
  7 17  1  0
M  END
> <intraLJ>
-0.625    

> <intraEL>
-9.464    

> <intraDihe>
5.471     

> <interLJ>
0.000     

> <interEJ>
0.000     

> <gridLJ>
-3.406    

> <gridEL>
0.000     

> <totalE>
-8.025    

> <LGFE>
-3.406  

> <LE>
-0.487  

> <SMILES>
CC(C)NC(N)=O

> <atom.dprop.GFE>
-0.32 -0.41 -0.26 -0.65 0 -0.79 -0.98 0 0 0 0 0 0 0 0 0 0

> <atom.prop.CLASS>
PRPC PRPC PRPC GEND NCLA GENA GEND NCLA NCLA NCLA NCLA NCLA NCLA NCLA NCLA NCLA NCLA

$$$$
