78_2
     RDKit          3D

 14 13  0  0  0  0  0  0  0  0999 V2000
    0.8251   13.7832    9.0507 C   0  0  0  0  0  0  0  0  0  0  0  0
   -0.1509   12.6519    8.6446 C   0  0  0  0  0  0  0  0  0  0  0  0
   -0.9352   13.0272    7.3948 C   0  0  0  0  0  0  0  0  0  0  0  0
   -0.4186   12.9003    6.2163 N   0  0  0  0  0  0  0  0  0  0  0  0
   -2.1413   13.4986    7.4069 N   0  0  0  0  0  0  0  0  0  0  0  0
    1.3281   13.4723    9.9685 H   0  0  0  0  0  0  0  0  0  0  0  0
    0.2647   14.7008    9.2438 H   0  0  0  0  0  0  0  0  0  0  0  0
    1.5725   13.9269    8.2673 H   0  0  0  0  0  0  0  0  0  0  0  0
   -0.8511   12.5014    9.4553 H   0  0  0  0  0  0  0  0  0  0  0  0
    0.4254   11.7611    8.4314 H   0  0  0  0  0  0  0  0  0  0  0  0
   -0.9389   13.1533    5.3637 H   0  0  0  0  0  0  0  0  0  0  0  0
    0.5443   12.5359    6.1083 H   0  0  0  0  0  0  0  0  0  0  0  0
   -2.6425   13.7461    6.5420 H   0  0  0  0  0  0  0  0  0  0  0  0
   -2.6269   13.6314    8.3106 H   0  0  0  0  0  0  0  0  0  0  0  0
  1  2  1  0
  1  6  1  0
  1  7  1  0
  1  8  1  0
  2  3  1  0
  2  9  1  0
  2 10  1  0
  3  4  2  0
  3  5  1  0
  4 11  1  0
  4 12  1  0
  5 13  1  0
  5 14  1  0
M  CHG  1   4   1
M  END
> <intraLJ>
0.191     

> <intraEL>
-6.611    

> <intraDihe>
1.001     

> <interLJ>
0.000     

> <interEJ>
0.000     

> <gridLJ>
-2.084    

> <gridEL>
0.000     

> <totalE>
-7.503    

> <LGFE>
-2.084  

> <LE>
-0.417  

> <SMILES>
CCC(N)=[NH2+]

> <atom.dprop.GFE>
-0.33 -0.37 -1.4 0 0 0 0 0 0 0 0 0 0 0

> <atom.prop.CLASS>
PRPC PRPC MAMC NCLA NCLA NCLA NCLA NCLA NCLA NCLA NCLA NCLA NCLA NCLA

$$$$
