15_2
     RDKit          3D

 14 14  0  0  0  0  0  0  0  0999 V2000
   12.9376    7.2918    1.5876 N   0  0  0  0  0  0  0  0  0  0  0  0
   12.1148    7.6882    0.6083 C   0  0  0  0  0  0  0  0  0  0  0  0
   12.4827    7.7644   -0.7506 C   0  0  0  0  0  0  0  0  0  0  0  0
   11.5568    8.1841   -1.6749 C   0  0  0  0  0  0  0  0  0  0  0  0
   10.2603    8.5288   -1.2430 C   0  0  0  0  0  0  0  0  0  0  0  0
    9.9310    8.4428    0.0920 C   0  0  0  0  0  0  0  0  0  0  0  0
   10.8742    8.0214    0.9911 N   0  0  0  0  0  0  0  0  0  0  0  0
   12.6738    7.2343    2.5848 H   0  0  0  0  0  0  0  0  0  0  0  0
   13.9115    7.0210    1.3543 H   0  0  0  0  0  0  0  0  0  0  0  0
   13.4676    7.4976   -1.0393 H   0  0  0  0  0  0  0  0  0  0  0  0
   11.8094    8.2510   -2.7063 H   0  0  0  0  0  0  0  0  0  0  0  0
    9.5423    8.8535   -1.9542 H   0  0  0  0  0  0  0  0  0  0  0  0
    8.9798    8.6829    0.5009 H   0  0  0  0  0  0  0  0  0  0  0  0
   10.6471    7.9509    1.9932 H   0  0  0  0  0  0  0  0  0  0  0  0
  1  2  1  0
  1  8  1  0
  1  9  1  0
  2  3  2  0
  2  7  1  0
  3  4  1  0
  3 10  1  0
  4  5  2  0
  4 11  1  0
  5  6  1  0
  5 12  1  0
  6  7  2  0
  6 13  1  0
  7 14  1  0
M  CHG  1   7   1
M  END
> <intraLJ>
8.433     

> <intraEL>
1.228     

> <intraDihe>
0.000     

> <interLJ>
0.000     

> <interEJ>
0.000     

> <gridLJ>
-3.709    

> <gridEL>
0.000     

> <totalE>
5.952     

> <LGFE>
-3.709  

> <LE>
-0.530  

> <SMILES>
Nc1cccc[nH+]1

> <atom.dprop.GFE>
-1.1 0.049 0.032 -0.038 -0.026 -0.0033 -2.6 0 0 0 0 0 0 0

> <atom.prop.CLASS>
GEND BENC BENC BENC BENC BENC MAMN NCLA NCLA NCLA NCLA NCLA NCLA NCLA

$$$$
