2_1
     RDKit          3D

 15 15  0  0  0  0  0  0  0  0999 V2000
    9.8570   -5.1274    1.8860 C   0  0  0  0  0  0  0  0  0  0  0  0
   10.1244   -4.8899    3.3837 C   0  0  0  0  0  0  0  0  0  0  0  0
    8.9102   -4.9292    4.1354 O   0  0  0  0  0  0  0  0  0  0  0  0
    7.9736   -3.9542    3.6739 C   0  0  0  0  0  0  0  0  0  0  0  0
    7.6433   -4.1643    2.1840 C   0  0  0  0  0  0  0  0  0  0  0  0
    8.8715   -4.1533    1.3465 N   0  0  0  0  0  0  0  0  0  0  0  0
    9.4732   -6.1430    1.7688 H   0  0  0  0  0  0  0  0  0  0  0  0
   10.7963   -5.0456    1.3376 H   0  0  0  0  0  0  0  0  0  0  0  0
   10.6013   -3.9168    3.5076 H   0  0  0  0  0  0  0  0  0  0  0  0
   10.8013   -5.6599    3.7546 H   0  0  0  0  0  0  0  0  0  0  0  0
    8.3885   -2.9541    3.8055 H   0  0  0  0  0  0  0  0  0  0  0  0
    7.0564   -4.0311    4.2583 H   0  0  0  0  0  0  0  0  0  0  0  0
    6.9636   -3.3777    1.8543 H   0  0  0  0  0  0  0  0  0  0  0  0
    7.1366   -5.1263    2.0822 H   0  0  0  0  0  0  0  0  0  0  0  0
    8.6519   -4.3576    0.3785 H   0  0  0  0  0  0  0  0  0  0  0  0
  1  2  1  0
  1  6  1  0
  1  7  1  0
  1  8  1  0
  2  3  1  0
  2  9  1  0
  2 10  1  0
  3  4  1  0
  4  5  1  0
  4 11  1  0
  4 12  1  0
  5  6  1  0
  5 13  1  0
  5 14  1  0
  6 15  1  0
M  END
> <intraLJ>
0.516     

> <intraEL>
2.915     

> <intraDihe>
4.772     

> <interLJ>
0.000     

> <interEJ>
0.000     

> <gridLJ>
-2.763    

> <gridEL>
0.000     

> <totalE>
5.440     

> <LGFE>
-2.763  

> <LE>
-0.460  

> <SMILES>
C1COCCN1

> <atom.dprop.GFE>
-0.33 -0.16 -0.66 -0.15 -0.6 -0.86 0 0 0 0 0 0 0 0 0

> <atom.prop.CLASS>
PRPC PRPC GENA PRPC PRPC GEND NCLA NCLA NCLA NCLA NCLA NCLA NCLA NCLA NCLA

$$$$
