55
     RDKit          3D

  7  7  0  0  0  0  0  0  0  0999 V2000
  -16.4486   10.9194   -6.1649 C   0  0  0  0  0  0  0  0  0  0  0  0
  -15.2875   11.1079   -6.6649 N   0  0  0  0  0  0  0  0  0  0  0  0
  -15.1346   10.1420   -7.6266 N   0  0  0  0  0  0  0  0  0  0  0  0
  -16.2190    9.4644   -7.6133 C   0  0  0  0  0  0  0  0  0  0  0  0
  -17.0628    9.9106   -6.7221 O   0  0  0  0  0  0  0  0  0  0  0  0
  -16.9239   11.4699   -5.3919 H   0  0  0  0  0  0  0  0  0  0  0  0
  -16.4761    8.6322   -8.2184 H   0  0  0  0  0  0  0  0  0  0  0  0
  1  2  2  0
  1  5  1  0
  1  6  1  0
  2  3  1  0
  3  4  2  0
  4  5  1  0
  4  7  1  0
M  END
> <intraLJ>
-0.193    

> <intraEL>
-0.061    

> <intraDihe>
0.000     

> <interLJ>
0.000     

> <interEJ>
0.000     

> <gridLJ>
-4.308    

> <gridEL>
0.000     

> <totalE>
-4.561    

> <LGFE>
-4.308  

> <LE>
-0.862  

> <SMILES>
c1nnco1

> <atom.dprop.GFE>
-0.26 -1.3 -1.3 -0.21 -1.1 0 0

> <atom.prop.CLASS>
GEHC GENA GENA GEHC GENA NCLA NCLA

$$$$
