51_1
     RDKit          3D

 12 12  0  0  0  0  0  0  0  0999 V2000
   22.9636    6.1795   -6.6445 O   0  0  0  0  0  0  0  0  0  0  0  0
   23.2865    6.7335   -7.6805 C   0  0  0  0  0  0  0  0  0  0  0  0
   24.6305    6.7860   -8.3301 C   0  0  0  0  0  0  0  0  0  0  0  0
   24.4607    8.0109   -9.2597 C   0  0  0  0  0  0  0  0  0  0  0  0
   23.0230    8.0672   -9.6032 N   0  0  0  0  0  0  0  0  0  0  0  0
   22.4183    7.4112   -8.4256 N   0  0  0  0  0  0  0  0  0  0  0  0
   24.7549    5.8912   -8.9214 H   0  0  0  0  0  0  0  0  0  0  0  0
   25.4021    6.9550   -7.5931 H   0  0  0  0  0  0  0  0  0  0  0  0
   25.0854    7.9216  -10.1506 H   0  0  0  0  0  0  0  0  0  0  0  0
   24.7297    8.9182   -8.7152 H   0  0  0  0  0  0  0  0  0  0  0  0
   22.8976    7.4197  -10.4037 H   0  0  0  0  0  0  0  0  0  0  0  0
   21.4353    7.5276   -8.1239 H   0  0  0  0  0  0  0  0  0  0  0  0
  1  2  2  0
  2  3  1  0
  2  6  1  0
  3  4  1  0
  3  7  1  0
  3  8  1  0
  4  5  1  0
  4  9  1  0
  4 10  1  0
  5  6  1  0
  5 11  1  0
  6 12  1  0
M  END
> <intraLJ>
-0.445    

> <intraEL>
-0.094    

> <intraDihe>
6.248     

> <interLJ>
0.000     

> <interEJ>
0.000     

> <gridLJ>
-4.723    

> <gridEL>
0.000     

> <totalE>
0.986     

> <LGFE>
-4.723  

> <LE>
-0.787  

> <SMILES>
O=C1CCNN1

> <atom.dprop.GFE>
-1.2 -0.4 -0.37 -0.41 -1 -1.3 0 0 0 0 0 0

> <atom.prop.CLASS>
GENA GEHC PRPC PRPC GEND GEND NCLA NCLA NCLA NCLA NCLA NCLA

$$$$
