59_1
     RDKit          3D

 10  9  0  0  0  0  0  0  0  0999 V2000
  -30.3216   16.1693   24.5172 C   0  0  0  0  0  0  0  0  0  0  0  0
  -28.8353   15.9967   24.7431 C   0  0  0  0  0  0  0  0  0  0  0  0
  -28.0809   16.7134   24.1126 O   0  0  0  0  0  0  0  0  0  0  0  0
  -28.3523   14.9840   25.7047 C   0  0  0  0  0  0  0  0  0  0  0  0
  -29.0551   14.1654   26.2659 O   0  0  0  0  0  0  0  0  0  0  0  0
  -27.0820   14.8705   26.0510 O   0  0  0  0  0  0  0  0  0  0  0  0
  -30.7565   16.4315   25.4716 H   0  0  0  0  0  0  0  0  0  0  0  0
  -30.6998   15.2180   24.1678 H   0  0  0  0  0  0  0  0  0  0  0  0
  -30.4574   16.9517   23.7836 H   0  0  0  0  0  0  0  0  0  0  0  0
  -27.1204   14.1254   26.6798 H   0  0  0  0  0  0  0  0  0  0  0  0
  1  2  1  0
  1  7  1  0
  1  8  1  0
  1  9  1  0
  2  3  2  0
  2  4  1  0
  4  5  2  0
  4  6  1  0
  6 10  1  0
M  END
> <intraLJ>
-0.540    

> <intraEL>
-0.053    

> <intraDihe>
2.129     

> <interLJ>
0.000     

> <interEJ>
0.000     

> <gridLJ>
-2.482    

> <gridEL>
0.000     

> <totalE>
-0.947    

> <LGFE>
-2.482  

> <LE>
-0.414  

> <SMILES>
CC(=O)C(=O)O

> <atom.dprop.GFE>
-0.16 0 -0.56 0 -1 -0.76 0 0 0 0

> <atom.prop.CLASS>
PRPC NCLA GENA NCLA GENA MEOO NCLA NCLA NCLA NCLA

$$$$
