69_1
     RDKit          3D

 14 14  0  0  0  0  0  0  0  0999 V2000
   21.8219   -3.5941  -10.7790 C   0  0  0  0  0  0  0  0  0  0  0  0
   20.8530   -3.3564  -11.8351 N   0  0  0  0  0  0  0  0  0  0  0  0
   20.2067   -4.3050  -12.5636 C   0  0  0  0  0  0  0  0  0  0  0  0
   19.3960   -3.7734  -13.4355 N   0  0  0  0  0  0  0  0  0  0  0  0
   19.5343   -2.4482  -13.2431 C   0  0  0  0  0  0  0  0  0  0  0  0
   18.8200   -1.5533  -14.0164 N   0  0  0  0  0  0  0  0  0  0  0  0
   20.4244   -2.1551  -12.2751 C   0  0  0  0  0  0  0  0  0  0  0  0
   21.9235   -4.6631  -10.6585 H   0  0  0  0  0  0  0  0  0  0  0  0
   21.4329   -3.1276   -9.8839 H   0  0  0  0  0  0  0  0  0  0  0  0
   22.7502   -3.1385  -11.0940 H   0  0  0  0  0  0  0  0  0  0  0  0
   20.3861   -5.3365  -12.3952 H   0  0  0  0  0  0  0  0  0  0  0  0
   19.4201   -0.7618  -14.2688 H   0  0  0  0  0  0  0  0  0  0  0  0
   18.4969   -2.0702  -14.8438 H   0  0  0  0  0  0  0  0  0  0  0  0
   20.7537   -1.2267  -11.8906 H   0  0  0  0  0  0  0  0  0  0  0  0
  1  2  1  0
  1  8  1  0
  1  9  1  0
  1 10  1  0
  2  3  1  0
  2  7  1  0
  3  4  2  0
  3 11  1  0
  4  5  1  0
  5  6  1  0
  5  7  2  0
  6 12  1  0
  6 13  1  0
  7 14  1  0
M  END
> <intraLJ>
0.484     

> <intraEL>
-6.835    

> <intraDihe>
2.003     

> <interLJ>
0.000     

> <interEJ>
0.000     

> <gridLJ>
-2.806    

> <gridEL>
0.000     

> <totalE>
-7.154    

> <LGFE>
-2.806  

> <LE>
-0.401  

> <SMILES>
Cn1cnc(N)c1

> <atom.dprop.GFE>
-0.27 -0.21 -0.19 -0.69 -0.23 -1 -0.19 0 0 0 0 0 0 0

> <atom.prop.CLASS>
PRPC GEHC GEHC GENA GEHC GEND GEHC NCLA NCLA NCLA NCLA NCLA NCLA NCLA

$$$$
