8
     RDKit          3D

  9  9  0  0  0  0  0  0  0  0999 V2000
    6.2630   12.5528  -28.5625 N   0  0  0  0  0  0  0  0  0  0  0  0
    6.0821   13.2495  -27.6724 C   0  0  0  0  0  0  0  0  0  0  0  0
    5.8338   14.1382  -26.5634 C   0  0  0  0  0  0  0  0  0  0  0  0
    4.8253   15.0967  -26.4928 C   0  0  0  0  0  0  0  0  0  0  0  0
    4.9649   15.6859  -25.2977 C   0  0  0  0  0  0  0  0  0  0  0  0
    5.9991   15.1146  -24.6827 O   0  0  0  0  0  0  0  0  0  0  0  0
    6.5266   14.1662  -25.4647 N   0  0  0  0  0  0  0  0  0  0  0  0
    4.0967   15.3190  -27.2281 H   0  0  0  0  0  0  0  0  0  0  0  0
    4.4165   16.4647  -24.8300 H   0  0  0  0  0  0  0  0  0  0  0  0
  1  2  3  0
  2  3  1  0
  3  4  1  0
  3  7  2  0
  4  5  2  0
  4  8  1  0
  5  6  1  0
  5  9  1  0
  6  7  1  0
M  END
> <intraLJ>
-0.818    

> <intraEL>
1.724     

> <intraDihe>
0.000     

> <interLJ>
0.000     

> <interEJ>
0.000     

> <gridLJ>
-2.256    

> <gridEL>
0.000     

> <totalE>
-1.349    

> <LGFE>
-2.256  

> <LE>
-0.322  

> <SMILES>
N#Cc1ccon1

> <atom.dprop.GFE>
-1 0 -0.044 -0.058 -0.074 -0.52 -0.52 0 0

> <atom.prop.CLASS>
GENA NCLA GEHC GEHC GEHC GENA GENA NCLA NCLA

$$$$
