56
     RDKit          3D

 13 12  0  0  0  0  0  0  0  0999 V2000
  -18.0344    7.8357  -16.6436 C   0  0  0  0  0  0  0  0  0  0  0  0
  -16.5994    7.7894  -16.1891 C   0  0  0  0  0  0  0  0  0  0  0  0
  -15.8147    6.9875  -16.6448 O   0  0  0  0  0  0  0  0  0  0  0  0
  -16.2239    8.6990  -15.2363 N   0  0  0  0  0  0  0  0  0  0  0  0
  -15.0032    8.8764  -14.6559 C   0  0  0  0  0  0  0  0  0  0  0  0
  -14.0864    8.1509  -14.9801 O   0  0  0  0  0  0  0  0  0  0  0  0
  -14.8340    9.8365  -13.7443 N   0  0  0  0  0  0  0  0  0  0  0  0
  -18.5547    8.6143  -16.1061 H   0  0  0  0  0  0  0  0  0  0  0  0
  -18.4505    6.8605  -16.4368 H   0  0  0  0  0  0  0  0  0  0  0  0
  -18.0107    8.0295  -17.7071 H   0  0  0  0  0  0  0  0  0  0  0  0
  -16.9301    9.3501  -14.8878 H   0  0  0  0  0  0  0  0  0  0  0  0
  -13.9155    9.9589  -13.3085 H   0  0  0  0  0  0  0  0  0  0  0  0
  -15.6474   10.4267  -13.4991 H   0  0  0  0  0  0  0  0  0  0  0  0
  1  2  1  0
  1  8  1  0
  1  9  1  0
  1 10  1  0
  2  3  2  0
  2  4  1  0
  4  5  1  0
  4 11  1  0
  5  6  2  0
  5  7  1  0
  7 12  1  0
  7 13  1  0
M  END
> <intraLJ>
1.000     

> <intraEL>
-10.160   

> <intraDihe>
0.002     

> <interLJ>
0.000     

> <interEJ>
0.000     

> <gridLJ>
-3.458    

> <gridEL>
0.000     

> <totalE>
-12.616   

> <LGFE>
-3.458  

> <LE>
-0.494  

> <SMILES>
CC(=O)NC(N)=O

> <atom.dprop.GFE>
-0.26 0 -1 -0.64 0 -0.7 -0.83 0 0 0 0 0 0

> <atom.prop.CLASS>
PRPC NCLA GENA GEND NCLA GENA GEND NCLA NCLA NCLA NCLA NCLA NCLA

$$$$
