51_1
     RDKit          3D

 12 12  0  0  0  0  0  0  0  0999 V2000
   11.7899   16.4159   -3.0428 O   0  0  0  0  0  0  0  0  0  0  0  0
   10.8463   16.2537   -2.2894 C   0  0  0  0  0  0  0  0  0  0  0  0
   10.3838   17.1307   -1.1722 C   0  0  0  0  0  0  0  0  0  0  0  0
    9.5273   16.1366   -0.3526 C   0  0  0  0  0  0  0  0  0  0  0  0
    9.0031   15.1516   -1.3237 N   0  0  0  0  0  0  0  0  0  0  0  0
   10.0427   15.1975   -2.3723 N   0  0  0  0  0  0  0  0  0  0  0  0
    9.7531   17.9024   -1.5876 H   0  0  0  0  0  0  0  0  0  0  0  0
   11.2255   17.4910   -0.5988 H   0  0  0  0  0  0  0  0  0  0  0  0
    8.7219   16.6501    0.1762 H   0  0  0  0  0  0  0  0  0  0  0  0
   10.1641   15.6187    0.3673 H   0  0  0  0  0  0  0  0  0  0  0  0
    8.1499   15.5801   -1.7291 H   0  0  0  0  0  0  0  0  0  0  0  0
   10.2203   14.4467   -3.0620 H   0  0  0  0  0  0  0  0  0  0  0  0
  1  2  2  0
  2  3  1  0
  2  6  1  0
  3  4  1  0
  3  7  1  0
  3  8  1  0
  4  5  1  0
  4  9  1  0
  4 10  1  0
  5  6  1  0
  5 11  1  0
  6 12  1  0
M  END
> <intraLJ>
-0.445    

> <intraEL>
-0.094    

> <intraDihe>
6.248     

> <interLJ>
0.000     

> <interEJ>
0.000     

> <gridLJ>
-2.006    

> <gridEL>
0.000     

> <totalE>
3.704     

> <LGFE>
-2.006  

> <LE>
-0.334  

> <SMILES>
O=C1CCNN1

> <atom.dprop.GFE>
-0.54 -0.14 -0.33 -0.21 -0.46 -0.33 0 0 0 0 0 0

> <atom.prop.CLASS>
GENA GEHC PRPC PRPC GEND GEND NCLA NCLA NCLA NCLA NCLA NCLA

$$$$
