76_2
     RDKit          3D

 23 22  0  0  0  0  0  0  0  0999 V2000
   -3.0176    4.1031    8.6577 C   0  0  0  0  0  0  0  0  0  0  0  0
   -1.9897    2.9634    8.6707 C   0  0  0  0  0  0  0  0  0  0  0  0
   -1.1825    3.0182    7.3643 C   0  0  0  0  0  0  0  0  0  0  0  0
   -2.7259    1.6248    8.8605 C   0  0  0  0  0  0  0  0  0  0  0  0
   -1.7748    0.4280    9.0314 C   0  0  0  0  0  0  0  0  0  0  0  0
   -2.5715   -0.8400    9.3289 C   0  0  0  0  0  0  0  0  0  0  0  0
   -1.6575   -1.9899    9.4892 N   0  0  0  0  0  0  0  0  0  0  0  0
   -2.5085    5.0627    8.5608 H   0  0  0  0  0  0  0  0  0  0  0  0
   -3.5839    4.1098    9.5908 H   0  0  0  0  0  0  0  0  0  0  0  0
   -3.7095    3.9837    7.8219 H   0  0  0  0  0  0  0  0  0  0  0  0
   -1.3105    3.1260    9.5111 H   0  0  0  0  0  0  0  0  0  0  0  0
   -1.8261    2.8026    6.5099 H   0  0  0  0  0  0  0  0  0  0  0  0
   -0.3595    2.3051    7.3893 H   0  0  0  0  0  0  0  0  0  0  0  0
   -0.7553    4.0143    7.2361 H   0  0  0  0  0  0  0  0  0  0  0  0
   -3.3785    1.4541    8.0009 H   0  0  0  0  0  0  0  0  0  0  0  0
   -3.3549    1.7064    9.7505 H   0  0  0  0  0  0  0  0  0  0  0  0
   -1.0879    0.6349    9.8552 H   0  0  0  0  0  0  0  0  0  0  0  0
   -1.2014    0.2860    8.1134 H   0  0  0  0  0  0  0  0  0  0  0  0
   -3.2677   -1.0193    8.5038 H   0  0  0  0  0  0  0  0  0  0  0  0
   -3.1551   -0.6843   10.2415 H   0  0  0  0  0  0  0  0  0  0  0  0
   -1.1224   -2.1267    8.6422 H   0  0  0  0  0  0  0  0  0  0  0  0
   -2.1828   -2.8322    9.6862 H   0  0  0  0  0  0  0  0  0  0  0  0
   -1.0172   -1.8171   10.2530 H   0  0  0  0  0  0  0  0  0  0  0  0
  1  2  1  0
  1  8  1  0
  1  9  1  0
  1 10  1  0
  2  3  1  0
  2  4  1  0
  2 11  1  0
  3 12  1  0
  3 13  1  0
  3 14  1  0
  4  5  1  0
  4 15  1  0
  4 16  1  0
  5  6  1  0
  5 17  1  0
  5 18  1  0
  6  7  1  0
  6 19  1  0
  6 20  1  0
  7 21  1  0
  7 22  1  0
  7 23  1  0
M  CHG  1   7   1
M  END
> <intraLJ>
-0.512    

> <intraEL>
1.707     

> <intraDihe>
0.175     

> <interLJ>
0.000     

> <interEJ>
0.000     

> <gridLJ>
-4.728    

> <gridEL>
0.000     

> <totalE>
-3.357    

> <LGFE>
-4.728  

> <LE>
-0.675  

> <SMILES>
CC(C)CCC[NH3+]

> <atom.dprop.GFE>
-0.51 -0.51 -0.56 -0.43 -0.28 -0.037 -2.4 0 0 0 0 0 0 0 0 0 0 0 0 0 0 0 0

> <atom.prop.CLASS>
PRPC PRPC PRPC PRPC PRPC PRPC MAMN NCLA NCLA NCLA NCLA NCLA NCLA NCLA NCLA NCLA NCLA NCLA NCLA NCLA NCLA NCLA NCLA

$$$$
