20_2
     RDKit          3D

 18 18  0  0  0  0  0  0  0  0999 V2000
  -20.8574  -10.9214   30.4056 N   0  0  0  0  0  0  0  0  0  0  0  0
  -21.2483  -10.3239   29.1237 C   0  0  0  0  0  0  0  0  0  0  0  0
  -21.2806   -8.8025   29.1907 C   0  0  0  0  0  0  0  0  0  0  0  0
  -22.1326   -8.4068   27.9816 C   0  0  0  0  0  0  0  0  0  0  0  0
  -23.0709   -9.5933   27.7261 C   0  0  0  0  0  0  0  0  0  0  0  0
  -22.6836  -10.6679   28.7480 C   0  0  0  0  0  0  0  0  0  0  0  0
  -19.9189  -10.6326   30.6449 H   0  0  0  0  0  0  0  0  0  0  0  0
  -20.8937  -11.9287   30.3382 H   0  0  0  0  0  0  0  0  0  0  0  0
  -21.4943  -10.6122   31.1244 H   0  0  0  0  0  0  0  0  0  0  0  0
  -20.5810  -10.6318   28.3124 H   0  0  0  0  0  0  0  0  0  0  0  0
  -20.2797   -8.3726   29.1243 H   0  0  0  0  0  0  0  0  0  0  0  0
  -21.7783   -8.4679   30.1033 H   0  0  0  0  0  0  0  0  0  0  0  0
  -21.4955   -8.2506   27.1073 H   0  0  0  0  0  0  0  0  0  0  0  0
  -22.6967   -7.4922   28.1827 H   0  0  0  0  0  0  0  0  0  0  0  0
  -22.9248   -9.9651   26.7085 H   0  0  0  0  0  0  0  0  0  0  0  0
  -24.1162   -9.2996   27.8532 H   0  0  0  0  0  0  0  0  0  0  0  0
  -23.3391  -10.5829   29.6172 H   0  0  0  0  0  0  0  0  0  0  0  0
  -22.7583  -11.6666   28.3155 H   0  0  0  0  0  0  0  0  0  0  0  0
  1  2  1  0
  1  7  1  0
  1  8  1  0
  1  9  1  0
  2  3  1  0
  2  6  1  0
  2 10  1  0
  3  4  1  0
  3 11  1  0
  3 12  1  0
  4  5  1  0
  4 13  1  0
  4 14  1  0
  5  6  1  0
  5 15  1  0
  5 16  1  0
  6 17  1  0
  6 18  1  0
M  CHG  1   1   1
M  END
> <intraLJ>
-0.090    

> <intraEL>
1.051     

> <intraDihe>
8.712     

> <interLJ>
0.000     

> <interEJ>
0.000     

> <gridLJ>
-2.025    

> <gridEL>
0.000     

> <totalE>
7.647     

> <LGFE>
-2.025  

> <LE>
-0.338  

> <SMILES>
[NH3+]C1CCCC1

> <atom.dprop.GFE>
-0.37 -0.24 -0.34 -0.43 -0.39 -0.25 0 0 0 0 0 0 0 0 0 0 0 0

> <atom.prop.CLASS>
MAMN PRPC PRPC PRPC PRPC PRPC NCLA NCLA NCLA NCLA NCLA NCLA NCLA NCLA NCLA NCLA NCLA NCLA

$$$$
