30_2
     RDKit          3D

 16 16  0  0  1  0  0  0  0  0999 V2000
   21.2709    4.6349   -5.9327 N   0  0  0  0  0  0  0  0  0  0  0  0
   21.1921    6.1160   -6.0524 C   0  0  0  0  0  0  0  0  0  0  0  0
   20.0135    6.5762   -6.9279 C   0  0  0  0  0  0  0  0  0  0  0  0
   20.5616    7.8568   -7.5899 C   0  0  0  0  0  0  0  0  0  0  0  0
   21.9895    7.6150   -7.6643 N   0  0  0  0  0  0  0  0  0  0  0  0
   22.3941    6.7282   -6.7785 C   0  0  0  0  0  0  0  0  0  0  0  0
   23.5311    6.2963   -6.6665 O   0  0  0  0  0  0  0  0  0  0  0  0
   20.5012    4.2600   -5.4012 H   0  0  0  0  0  0  0  0  0  0  0  0
   22.1570    4.4143   -5.4898 H   0  0  0  0  0  0  0  0  0  0  0  0
   21.3062    4.2294   -6.8575 H   0  0  0  0  0  0  0  0  0  0  0  0
   21.1273    6.5890   -5.0697 H   0  0  0  0  0  0  0  0  0  0  0  0
   19.8026    5.8428   -7.7076 H   0  0  0  0  0  0  0  0  0  0  0  0
   19.1200    6.7829   -6.3382 H   0  0  0  0  0  0  0  0  0  0  0  0
   20.3602    8.7311   -6.9650 H   0  0  0  0  0  0  0  0  0  0  0  0
   20.1244    8.0016   -8.5820 H   0  0  0  0  0  0  0  0  0  0  0  0
   22.6279    8.1084   -8.2767 H   0  0  0  0  0  0  0  0  0  0  0  0
  1  2  1  0
  1  8  1  0
  1  9  1  0
  1 10  1  0
  2  3  1  0
  2  6  1  0
  2 11  1  0
  3  4  1  0
  3 12  1  0
  3 13  1  0
  4  5  1  0
  4 14  1  0
  4 15  1  0
  5  6  1  0
  5 16  1  0
  6  7  2  0
M  CHG  1   1   1
M  END
> <intraLJ>
-0.328    

> <intraEL>
0.050     

> <intraDihe>
6.834     

> <interLJ>
0.000     

> <interEJ>
0.000     

> <gridLJ>
-4.701    

> <gridEL>
0.000     

> <totalE>
1.854     

> <LGFE>
-4.701  

> <LE>
-0.672  

> <SMILES>
[NH3+]C1CCNC1=O

> <atom.dprop.GFE>
-0.93 -0.24 -0.37 -0.3 -1.3 -0.36 -1.2 0 0 0 0 0 0 0 0 0

> <atom.prop.CLASS>
MAMN PRPC PRPC PRPC GEND GEHC GENA NCLA NCLA NCLA NCLA NCLA NCLA NCLA NCLA NCLA

$$$$
