39_2
     RDKit          3D

 10 10  0  0  0  0  0  0  0  0999 V2000
  -18.4144   -3.1779   26.6972 O   0  0  0  0  0  0  0  0  0  0  0  0
  -18.8996   -4.1267   26.0036 C   0  0  0  0  0  0  0  0  0  0  0  0
  -18.8191   -5.4538   26.4527 C   0  0  0  0  0  0  0  0  0  0  0  0
  -19.3544   -6.4562   25.6758 C   0  0  0  0  0  0  0  0  0  0  0  0
  -19.9584   -6.1181   24.4691 C   0  0  0  0  0  0  0  0  0  0  0  0
  -20.0267   -4.8501   24.0568 N   0  0  0  0  0  0  0  0  0  0  0  0
  -19.5134   -3.8722   24.7980 N   0  0  0  0  0  0  0  0  0  0  0  0
  -18.3480   -5.6482   27.3772 H   0  0  0  0  0  0  0  0  0  0  0  0
  -19.3071   -7.4636   25.9915 H   0  0  0  0  0  0  0  0  0  0  0  0
  -20.3800   -6.8630   23.8491 H   0  0  0  0  0  0  0  0  0  0  0  0
  1  2  1  0
  2  3  2  0
  2  7  1  0
  3  4  1  0
  3  8  1  0
  4  5  2  0
  4  9  1  0
  5  6  1  0
  5 10  1  0
  6  7  2  0
M  CHG  1   1  -1
M  END
> <intraLJ>
15.235    

> <intraEL>
4.019     

> <intraDihe>
0.000     

> <interLJ>
0.000     

> <interEJ>
0.000     

> <gridLJ>
-2.755    

> <gridEL>
0.000     

> <totalE>
16.499    

> <LGFE>
-2.755  

> <LE>
-0.394  

> <SMILES>
[O-]c1cccnn1

> <atom.dprop.GFE>
0 0.78 -0.12 -0.16 -0.13 -1.6 -1.5 0 0 0

> <atom.prop.CLASS>
NCLA ACEC BENC BENC BENC GENA GENA NCLA NCLA NCLA

$$$$
