63
     RDKit          3D

 11 11  0  0  0  0  0  0  0  0999 V2000
   20.9965    9.3586    1.9179 O   0  0  0  0  0  0  0  0  0  0  0  0
   20.6865   10.5277    1.9330 C   0  0  0  0  0  0  0  0  0  0  0  0
   19.9491   11.3147    2.9996 C   0  0  0  0  0  0  0  0  0  0  0  0
   19.9361   12.6311    2.3392 N   0  0  0  0  0  0  0  0  0  0  0  0
   20.5448   12.6028    1.1367 C   0  0  0  0  0  0  0  0  0  0  0  0
   20.6795   13.5419    0.3803 O   0  0  0  0  0  0  0  0  0  0  0  0
   20.9859   11.3473    0.9074 N   0  0  0  0  0  0  0  0  0  0  0  0
   20.5399   11.3362    3.9043 H   0  0  0  0  0  0  0  0  0  0  0  0
   18.9475   10.9206    3.1090 H   0  0  0  0  0  0  0  0  0  0  0  0
   19.5312   13.5090    2.6929 H   0  0  0  0  0  0  0  0  0  0  0  0
   21.4824   11.0621    0.0603 H   0  0  0  0  0  0  0  0  0  0  0  0
  1  2  2  0
  2  3  1  0
  2  7  1  0
  3  4  1  0
  3  8  1  0
  3  9  1  0
  4  5  1  0
  4 10  1  0
  5  6  2  0
  5  7  1  0
  7 11  1  0
M  END
> <intraLJ>
-0.609    

> <intraEL>
-7.501    

> <intraDihe>
0.000     

> <interLJ>
0.000     

> <interEJ>
0.000     

> <gridLJ>
-2.468    

> <gridEL>
0.000     

> <totalE>
-10.578   

> <LGFE>
-2.468  

> <LE>
-0.353  

> <SMILES>
O=C1CNC(=O)N1

> <atom.dprop.GFE>
-0.26 -0.12 -0.28 -0.47 -0.21 -0.52 -0.59 0 0 0 0

> <atom.prop.CLASS>
GENA GEHC PRPC GEND GEHC GENA GEND NCLA NCLA NCLA NCLA

$$$$
