11_3
     RDKit          3D

 11 11  0  0  0  0  0  0  0  0999 V2000
  -27.7827    5.0671    8.2660 O   0  0  0  0  0  0  0  0  0  0  0  0
  -27.0696    4.2033    7.5501 C   0  0  0  0  0  0  0  0  0  0  0  0
  -27.5684    2.8482    7.1896 C   0  0  0  0  0  0  0  0  0  0  0  0
  -26.3435    2.3737    6.3954 C   0  0  0  0  0  0  0  0  0  0  0  0
  -25.4124    3.5057    6.4589 O   0  0  0  0  0  0  0  0  0  0  0  0
  -25.9352    4.5441    7.1626 N   0  0  0  0  0  0  0  0  0  0  0  0
  -27.1782    5.8326    8.3166 H   0  0  0  0  0  0  0  0  0  0  0  0
  -28.4367    2.9365    6.5547 H   0  0  0  0  0  0  0  0  0  0  0  0
  -27.7062    2.2615    8.0859 H   0  0  0  0  0  0  0  0  0  0  0  0
  -26.6079    2.1678    5.3581 H   0  0  0  0  0  0  0  0  0  0  0  0
  -25.8935    1.4962    6.8609 H   0  0  0  0  0  0  0  0  0  0  0  0
  1  2  1  0
  1  7  1  0
  2  3  1  0
  2  6  2  0
  3  4  1  0
  3  8  1  0
  3  9  1  0
  4  5  1  0
  4 10  1  0
  4 11  1  0
  5  6  1  0
M  END
> <intraLJ>
-0.718    

> <intraEL>
-4.916    

> <intraDihe>
22.322    

> <interLJ>
0.000     

> <interEJ>
0.000     

> <gridLJ>
-3.117    

> <gridEL>
0.000     

> <totalE>
13.572    

> <LGFE>
-3.117  

> <LE>
-0.519  

> <SMILES>
OC1=NOCC1

> <atom.dprop.GFE>
-0.5 -0.25 -0.37 -0.4 -0.77 -0.82 0 0 0 0 0

> <atom.prop.CLASS>
MEOO GEHC PRPC PRPC GENA GENA NCLA NCLA NCLA NCLA NCLA

$$$$
