68_2
     RDKit          3D

 18 17  0  0  1  0  0  0  0  0999 V2000
  -37.9849   -6.1863   19.5121 C   0  0  0  0  0  0  0  0  0  0  0  0
  -38.8601   -6.3874   20.7453 C   0  0  0  0  0  0  0  0  0  0  0  0
  -40.2073   -6.7918   20.3185 N   0  0  0  0  0  0  0  0  0  0  0  0
  -38.8899   -5.1103   21.5998 C   0  0  0  0  0  0  0  0  0  0  0  0
  -39.5501   -5.3499   22.9490 C   0  0  0  0  0  0  0  0  0  0  0  0
  -40.0476   -6.4337   23.2145 O   0  0  0  0  0  0  0  0  0  0  0  0
  -39.6241   -4.3570   23.8105 N   0  0  0  0  0  0  0  0  0  0  0  0
  -36.9715   -5.9222   19.8174 H   0  0  0  0  0  0  0  0  0  0  0  0
  -38.3807   -5.3871   18.8833 H   0  0  0  0  0  0  0  0  0  0  0  0
  -37.9351   -7.1092   18.9327 H   0  0  0  0  0  0  0  0  0  0  0  0
  -38.4207   -7.1832   21.3566 H   0  0  0  0  0  0  0  0  0  0  0  0
  -40.6363   -6.0843   19.7438 H   0  0  0  0  0  0  0  0  0  0  0  0
  -40.7590   -6.8957   21.1757 H   0  0  0  0  0  0  0  0  0  0  0  0
  -40.1820   -7.6753   19.8330 H   0  0  0  0  0  0  0  0  0  0  0  0
  -39.4279   -4.3172   21.0823 H   0  0  0  0  0  0  0  0  0  0  0  0
  -37.8665   -4.7769   21.7742 H   0  0  0  0  0  0  0  0  0  0  0  0
  -40.0812   -4.5457   24.6905 H   0  0  0  0  0  0  0  0  0  0  0  0
  -39.2386   -3.4481   23.6159 H   0  0  0  0  0  0  0  0  0  0  0  0
  1  2  1  0
  1  8  1  0
  1  9  1  0
  1 10  1  0
  2  3  1  0
  2  4  1  0
  2 11  1  0
  3 12  1  0
  3 13  1  0
  3 14  1  0
  4  5  1  0
  4 15  1  0
  4 16  1  0
  5  6  2  0
  5  7  1  0
  7 17  1  0
  7 18  1  0
M  CHG  1   3   1
M  END
> <intraLJ>
2.017     

> <intraEL>
-9.278    

> <intraDihe>
0.188     

> <interLJ>
0.000     

> <interEJ>
0.000     

> <gridLJ>
-2.512    

> <gridEL>
0.000     

> <totalE>
-9.586    

> <LGFE>
-2.512  

> <LE>
-0.359  

> <SMILES>
CC([NH3+])CC(N)=O

> <atom.dprop.GFE>
-0.15 -0.13 -1.1 -0.087 0 -0.37 -0.72 0 0 0 0 0 0 0 0 0 0 0

> <atom.prop.CLASS>
PRPC PRPC MAMN PRPC NCLA GENA GEND NCLA NCLA NCLA NCLA NCLA NCLA NCLA NCLA NCLA NCLA NCLA

$$$$
