17_1
     RDKit          3D

 15 15  0  0  0  0  0  0  0  0999 V2000
   23.3320   -1.5122  -27.1227 N   0  0  0  0  0  0  0  0  0  0  0  0
   22.3556   -2.3562  -27.4841 C   0  0  0  0  0  0  0  0  0  0  0  0
   21.3673   -1.8687  -27.9886 O   0  0  0  0  0  0  0  0  0  0  0  0
   22.5783   -3.8666  -27.2160 C   0  0  0  0  0  0  0  0  0  0  0  0
   23.8880   -4.2682  -26.6916 N   0  0  0  0  0  0  0  0  0  0  0  0
   21.9124   -4.8625  -28.1076 C   0  0  0  0  0  0  0  0  0  0  0  0
   21.4179   -4.6437  -26.6888 C   0  0  0  0  0  0  0  0  0  0  0  0
   23.1968   -0.5304  -27.2831 H   0  0  0  0  0  0  0  0  0  0  0  0
   24.1633   -1.8950  -26.7051 H   0  0  0  0  0  0  0  0  0  0  0  0
   24.5837   -4.1258  -27.4295 H   0  0  0  0  0  0  0  0  0  0  0  0
   23.8620   -5.2739  -26.5045 H   0  0  0  0  0  0  0  0  0  0  0  0
   22.4439   -5.7837  -28.3024 H   0  0  0  0  0  0  0  0  0  0  0  0
   21.2902   -4.4649  -28.8995 H   0  0  0  0  0  0  0  0  0  0  0  0
   20.4857   -4.1052  -26.5836 H   0  0  0  0  0  0  0  0  0  0  0  0
   21.6369   -5.4167  -25.9654 H   0  0  0  0  0  0  0  0  0  0  0  0
  1  2  1  0
  1  8  1  0
  1  9  1  0
  2  3  2  0
  2  4  1  0
  4  5  1  0
  4  6  1  0
  4  7  1  0
  5 10  1  0
  5 11  1  0
  6  7  1  0
  6 12  1  0
  6 13  1  0
  7 14  1  0
  7 15  1  0
M  END
> <intraLJ>
3.011     

> <intraEL>
0.474     

> <intraDihe>
8.467     

> <interLJ>
0.000     

> <interEJ>
0.000     

> <gridLJ>
-2.564    

> <gridEL>
0.000     

> <totalE>
9.389     

> <LGFE>
-2.564  

> <LE>
-0.366  

> <SMILES>
NC(=O)C1(N)CC1

> <atom.dprop.GFE>
-0.43 0 -1.2 -0.21 -0.36 -0.19 -0.14 0 0 0 0 0 0 0 0

> <atom.prop.CLASS>
GEND NCLA GENA PRPC GEND PRPC PRPC NCLA NCLA NCLA NCLA NCLA NCLA NCLA NCLA

$$$$
