31_1
     RDKit          3D

 15 15  0  0  0  0  0  0  0  0999 V2000
  -34.8537   16.4804   24.4768 O   0  0  0  0  0  0  0  0  0  0  0  0
  -34.7885   16.1655   25.6569 C   0  0  0  0  0  0  0  0  0  0  0  0
  -33.4271   16.1028   26.3999 C   0  0  0  0  0  0  0  0  0  0  0  0
  -33.5031   16.0337   27.8996 N   0  0  0  0  0  0  0  0  0  0  0  0
  -34.6289   15.1517   28.3072 C   0  0  0  0  0  0  0  0  0  0  0  0
  -35.9634   15.6838   27.7550 C   0  0  0  0  0  0  0  0  0  0  0  0
  -35.8981   15.7975   26.2984 N   0  0  0  0  0  0  0  0  0  0  0  0
  -32.8367   16.9704   26.1030 H   0  0  0  0  0  0  0  0  0  0  0  0
  -32.9134   15.2117   26.0404 H   0  0  0  0  0  0  0  0  0  0  0  0
  -33.6551   16.9666   28.2642 H   0  0  0  0  0  0  0  0  0  0  0  0
  -34.6842   15.1048   29.3965 H   0  0  0  0  0  0  0  0  0  0  0  0
  -34.4629   14.1407   27.9283 H   0  0  0  0  0  0  0  0  0  0  0  0
  -36.1661   16.6631   28.1915 H   0  0  0  0  0  0  0  0  0  0  0  0
  -36.7648   14.9985   28.0368 H   0  0  0  0  0  0  0  0  0  0  0  0
  -36.7442   15.8097   25.7534 H   0  0  0  0  0  0  0  0  0  0  0  0
  1  2  2  0
  2  3  1  0
  2  7  1  0
  3  4  1  0
  3  8  1  0
  3  9  1  0
  4  5  1  0
  4 10  1  0
  5  6  1  0
  5 11  1  0
  5 12  1  0
  6  7  1  0
  6 13  1  0
  6 14  1  0
  7 15  1  0
M  END
> <intraLJ>
0.615     

> <intraEL>
3.232     

> <intraDihe>
15.833    

> <interLJ>
0.000     

> <interEJ>
0.000     

> <gridLJ>
-2.061    

> <gridEL>
0.000     

> <totalE>
17.619    

> <LGFE>
-2.061  

> <LE>
-0.294  

> <SMILES>
O=C1CNCCN1

> <atom.dprop.GFE>
-0.34 0 -0.35 -0.3 -0.35 -0.27 -0.45 0 0 0 0 0 0 0 0

> <atom.prop.CLASS>
GENA NCLA PRPC GEND PRPC PRPC GEND NCLA NCLA NCLA NCLA NCLA NCLA NCLA NCLA

$$$$
