43
     RDKit          3D

 16 16  0  0  0  0  0  0  0  0999 V2000
   17.2519   13.5112  -34.6108 O   0  0  0  0  0  0  0  0  0  0  0  0
   16.5075   14.3516  -33.9550 B   0  0  0  0  0  0  0  0  0  0  0  0
   16.9134   14.6252  -32.7505 O   0  0  0  0  0  0  0  0  0  0  0  0
   15.1945   15.0329  -34.6018 C   0  0  0  0  0  0  0  0  0  0  0  0
   15.3772   15.4314  -36.0922 C   0  0  0  0  0  0  0  0  0  0  0  0
   14.5872   16.7276  -35.7462 C   0  0  0  0  0  0  0  0  0  0  0  0
   15.0651   16.5469  -34.2758 C   0  0  0  0  0  0  0  0  0  0  0  0
   16.9657   13.3058  -35.5180 H   0  0  0  0  0  0  0  0  0  0  0  0
   16.3713   15.2605  -32.2507 H   0  0  0  0  0  0  0  0  0  0  0  0
   14.3043   14.4505  -34.3968 H   0  0  0  0  0  0  0  0  0  0  0  0
   14.8737   14.7776  -36.7900 H   0  0  0  0  0  0  0  0  0  0  0  0
   16.4081   15.6335  -36.3533 H   0  0  0  0  0  0  0  0  0  0  0  0
   13.5170   16.6040  -35.8544 H   0  0  0  0  0  0  0  0  0  0  0  0
   14.9687   17.6182  -36.2282 H   0  0  0  0  0  0  0  0  0  0  0  0
   16.0196   17.0235  -34.0900 H   0  0  0  0  0  0  0  0  0  0  0  0
   14.3137   16.7767  -33.5338 H   0  0  0  0  0  0  0  0  0  0  0  0
  1  2  1  0
  1  8  1  0
  2  3  1  0
  2  4  1  0
  3  9  1  0
  4  5  1  0
  4  7  1  0
  4 10  1  0
  5  6  1  0
  5 11  1  0
  5 12  1  0
  6  7  1  0
  6 13  1  0
  6 14  1  0
  7 15  1  0
  7 16  1  0
M  END
> <intraLJ>
3.517     

> <intraEL>
0.178     

> <intraDihe>
30.179    

> <interLJ>
0.000     

> <interEJ>
0.000     

> <gridLJ>
-2.359    

> <gridEL>
0.000     

> <totalE>
31.515    

> <LGFE>
-2.359  

> <LE>
-0.337  

> <SMILES>
OB(O)C1CCC1

> <atom.dprop.GFE>
-0.86 0 -0.37 -0.45 -0.16 -0.27 -0.25 0 0 0 0 0 0 0 0 0

> <atom.prop.CLASS>
MEOO NCLA MEOO PRPC PRPC PRPC PRPC NCLA NCLA NCLA NCLA NCLA NCLA NCLA NCLA NCLA

$$$$
