23_1
     RDKit          3D

 11 11  0  0  0  0  0  0  0  0999 V2000
   23.8419   11.1847  -16.6662 O   0  0  0  0  0  0  0  0  0  0  0  0
   23.3195   12.1132  -17.4268 C   0  0  0  0  0  0  0  0  0  0  0  0
   22.2966   12.8253  -16.9769 N   0  0  0  0  0  0  0  0  0  0  0  0
   21.8005   13.7526  -17.7782 C   0  0  0  0  0  0  0  0  0  0  0  0
   22.3502   13.9494  -19.0368 C   0  0  0  0  0  0  0  0  0  0  0  0
   23.4208   13.1602  -19.4287 C   0  0  0  0  0  0  0  0  0  0  0  0
   23.9024   12.2364  -18.6094 N   0  0  0  0  0  0  0  0  0  0  0  0
   24.5429   10.8557  -17.2530 H   0  0  0  0  0  0  0  0  0  0  0  0
   20.9809   14.3354  -17.4403 H   0  0  0  0  0  0  0  0  0  0  0  0
   21.9591   14.6894  -19.6839 H   0  0  0  0  0  0  0  0  0  0  0  0
   23.8686   13.2821  -20.3839 H   0  0  0  0  0  0  0  0  0  0  0  0
  1  2  1  0
  1  8  1  0
  2  3  2  0
  2  7  1  0
  3  4  1  0
  4  5  2  0
  4  9  1  0
  5  6  1  0
  5 10  1  0
  6  7  2  0
  6 11  1  0
M  END
> <intraLJ>
20.130    

> <intraEL>
-14.212   

> <intraDihe>
6.700     

> <interLJ>
0.000     

> <interEJ>
0.000     

> <gridLJ>
-2.045    

> <gridEL>
0.000     

> <totalE>
10.573    

> <LGFE>
-2.045  

> <LE>
-0.292  

> <SMILES>
Oc1ncccn1

> <atom.dprop.GFE>
-0.49 -0.14 -0.61 -0.21 -0.12 -0.09 -0.38 0 0 0 0

> <atom.prop.CLASS>
MEOO GEHC GENA BENC BENC BENC GENA NCLA NCLA NCLA NCLA

$$$$
