73
     RDKit          3D

 13 13  0  0  0  0  0  0  0  0999 V2000
  -23.0945  -15.3865   24.0535 O   0  0  0  0  0  0  0  0  0  0  0  0
  -23.9808  -15.6610   23.2605 C   0  0  0  0  0  0  0  0  0  0  0  0
  -24.8924  -16.8626   23.3547 C   0  0  0  0  0  0  0  0  0  0  0  0
  -26.0433  -16.5019   22.3967 C   0  0  0  0  0  0  0  0  0  0  0  0
  -25.3682  -15.5249   21.4236 C   0  0  0  0  0  0  0  0  0  0  0  0
  -24.3221  -14.9235   22.2239 N   0  0  0  0  0  0  0  0  0  0  0  0
  -25.2478  -16.9983   24.3747 H   0  0  0  0  0  0  0  0  0  0  0  0
  -24.3557  -17.7407   22.9989 H   0  0  0  0  0  0  0  0  0  0  0  0
  -26.8281  -15.9797   22.9470 H   0  0  0  0  0  0  0  0  0  0  0  0
  -26.4436  -17.3784   21.8842 H   0  0  0  0  0  0  0  0  0  0  0  0
  -26.0812  -14.7801   21.0624 H   0  0  0  0  0  0  0  0  0  0  0  0
  -24.9288  -16.0702   20.5842 H   0  0  0  0  0  0  0  0  0  0  0  0
  -23.8322  -14.0742   21.9936 H   0  0  0  0  0  0  0  0  0  0  0  0
  1  2  2  0
  2  3  1  0
  2  6  1  0
  3  4  1  0
  3  7  1  0
  3  8  1  0
  4  5  1  0
  4  9  1  0
  4 10  1  0
  5  6  1  0
  5 11  1  0
  5 12  1  0
  6 13  1  0
M  END
> <intraLJ>
-0.403    

> <intraEL>
-2.564    

> <intraDihe>
6.839     

> <interLJ>
0.000     

> <interEJ>
0.000     

> <gridLJ>
-2.255    

> <gridEL>
0.000     

> <totalE>
1.616     

> <LGFE>
-2.255  

> <LE>
-0.376  

> <SMILES>
O=C1CCCN1

> <atom.dprop.GFE>
-0.42 -0.21 -0.26 -0.24 -0.29 -0.84 0 0 0 0 0 0 0

> <atom.prop.CLASS>
GENA GEHC PRPC PRPC PRPC GEND NCLA NCLA NCLA NCLA NCLA NCLA NCLA

$$$$
