32
     RDKit          3D

 17 16  0  0  0  0  0  0  0  0999 V2000
  -11.5989    9.0614   18.8965 C   0  0  0  0  0  0  0  0  0  0  0  0
  -12.5333    8.4582   17.8505 C   0  0  0  0  0  0  0  0  0  0  0  0
  -13.9772    8.4533   18.3495 C   0  0  0  0  0  0  0  0  0  0  0  0
  -12.1333    7.0727   17.7016 N   0  0  0  0  0  0  0  0  0  0  0  0
  -11.5663    6.5387   16.6036 C   0  0  0  0  0  0  0  0  0  0  0  0
  -11.1017    7.2399   15.7288 O   0  0  0  0  0  0  0  0  0  0  0  0
  -11.5457    5.2088   16.5006 N   0  0  0  0  0  0  0  0  0  0  0  0
  -11.8663   10.1033   19.0697 H   0  0  0  0  0  0  0  0  0  0  0  0
  -10.5706    9.0156   18.5356 H   0  0  0  0  0  0  0  0  0  0  0  0
  -11.6732    8.5128   19.8357 H   0  0  0  0  0  0  0  0  0  0  0  0
  -12.4628    9.0386   16.9293 H   0  0  0  0  0  0  0  0  0  0  0  0
  -14.0568    7.8890   19.2787 H   0  0  0  0  0  0  0  0  0  0  0  0
  -14.6208    7.9943   17.5988 H   0  0  0  0  0  0  0  0  0  0  0  0
  -14.3101    9.4762   18.5212 H   0  0  0  0  0  0  0  0  0  0  0  0
  -12.6715    6.3840   18.2386 H   0  0  0  0  0  0  0  0  0  0  0  0
  -11.2963    4.8518   15.5718 H   0  0  0  0  0  0  0  0  0  0  0  0
  -12.2049    4.6865   17.0791 H   0  0  0  0  0  0  0  0  0  0  0  0
  1  2  1  0
  1  8  1  0
  1  9  1  0
  1 10  1  0
  2  3  1  0
  2  4  1  0
  2 11  1  0
  3 12  1  0
  3 13  1  0
  3 14  1  0
  4  5  1  0
  4 15  1  0
  5  6  2  0
  5  7  1  0
  7 16  1  0
  7 17  1  0
M  END
> <intraLJ>
-0.692    

> <intraEL>
-9.452    

> <intraDihe>
5.484     

> <interLJ>
0.000     

> <interEJ>
0.000     

> <gridLJ>
-2.072    

> <gridEL>
0.000     

> <totalE>
-6.732    

> <LGFE>
-2.072  

> <LE>
-0.296  

> <SMILES>
CC(C)NC(N)=O

> <atom.dprop.GFE>
0.062 -0.11 -0.081 -0.82 0 -0.46 -0.66 0 0 0 0 0 0 0 0 0 0

> <atom.prop.CLASS>
PRPC PRPC PRPC GEND NCLA GENA GEND NCLA NCLA NCLA NCLA NCLA NCLA NCLA NCLA NCLA NCLA

$$$$
