73
     RDKit          3D

 13 13  0  0  0  0  0  0  0  0999 V2000
  -19.1384   -4.7237   23.7625 O   0  0  0  0  0  0  0  0  0  0  0  0
  -18.6132   -3.8708   24.4600 C   0  0  0  0  0  0  0  0  0  0  0  0
  -17.9312   -2.6240   23.9460 C   0  0  0  0  0  0  0  0  0  0  0  0
  -17.8409   -1.7348   25.2004 C   0  0  0  0  0  0  0  0  0  0  0  0
  -17.8565   -2.7663   26.3375 C   0  0  0  0  0  0  0  0  0  0  0  0
  -18.6046   -3.8720   25.7770 N   0  0  0  0  0  0  0  0  0  0  0  0
  -18.5247   -2.1542   23.1636 H   0  0  0  0  0  0  0  0  0  0  0  0
  -16.9371   -2.8881   23.5885 H   0  0  0  0  0  0  0  0  0  0  0  0
  -18.7313   -1.1071   25.2694 H   0  0  0  0  0  0  0  0  0  0  0  0
  -16.9341   -1.1276   25.2114 H   0  0  0  0  0  0  0  0  0  0  0  0
  -18.3417   -2.3580   27.2270 H   0  0  0  0  0  0  0  0  0  0  0  0
  -16.8377   -3.0860   26.5719 H   0  0  0  0  0  0  0  0  0  0  0  0
  -19.0159   -4.6219   26.3088 H   0  0  0  0  0  0  0  0  0  0  0  0
  1  2  2  0
  2  3  1  0
  2  6  1  0
  3  4  1  0
  3  7  1  0
  3  8  1  0
  4  5  1  0
  4  9  1  0
  4 10  1  0
  5  6  1  0
  5 11  1  0
  5 12  1  0
  6 13  1  0
M  END
> <intraLJ>
-0.403    

> <intraEL>
-2.564    

> <intraDihe>
6.839     

> <interLJ>
0.000     

> <interEJ>
0.000     

> <gridLJ>
-3.512    

> <gridEL>
0.000     

> <totalE>
0.359     

> <LGFE>
-3.512  

> <LE>
-0.585  

> <SMILES>
O=C1CCCN1

> <atom.dprop.GFE>
-1.6 -0.21 -0.18 -0.28 -0.19 -1 0 0 0 0 0 0 0

> <atom.prop.CLASS>
GENA GEHC PRPC PRPC PRPC GEND NCLA NCLA NCLA NCLA NCLA NCLA NCLA

$$$$
