14_2
     RDKit          3D

 19 19  0  0  1  0  0  0  0  0999 V2000
   -5.2526   12.8061   -9.3512 C   0  0  0  0  0  0  0  0  0  0  0  0
   -5.7167   11.4208   -9.1397 N   0  0  0  0  0  0  0  0  0  0  0  0
   -5.2958   10.5533  -10.2471 C   0  0  0  0  0  0  0  0  0  0  0  0
   -5.3205    9.1421   -9.6276 C   0  0  0  0  0  0  0  0  0  0  0  0
   -5.5138    9.3788   -8.1270 C   0  0  0  0  0  0  0  0  0  0  0  0
   -6.9038    9.3065   -7.8458 O   0  0  0  0  0  0  0  0  0  0  0  0
   -5.0824   10.8395   -7.9523 C   0  0  0  0  0  0  0  0  0  0  0  0
   -5.7255   13.1893  -10.2479 H   0  0  0  0  0  0  0  0  0  0  0  0
   -4.1739   12.7998   -9.4598 H   0  0  0  0  0  0  0  0  0  0  0  0
   -5.5461   13.3954   -8.4894 H   0  0  0  0  0  0  0  0  0  0  0  0
   -6.7263   11.3438   -9.0104 H   0  0  0  0  0  0  0  0  0  0  0  0
   -5.9962   10.6072  -11.0739 H   0  0  0  0  0  0  0  0  0  0  0  0
   -4.2769   10.7841  -10.5387 H   0  0  0  0  0  0  0  0  0  0  0  0
   -4.3701    8.6408   -9.8180 H   0  0  0  0  0  0  0  0  0  0  0  0
   -6.1385    8.5531  -10.0427 H   0  0  0  0  0  0  0  0  0  0  0  0
   -4.9482    8.6699   -7.5169 H   0  0  0  0  0  0  0  0  0  0  0  0
   -7.1714    8.3864   -7.7316 H   0  0  0  0  0  0  0  0  0  0  0  0
   -4.0028   10.9068   -8.0165 H   0  0  0  0  0  0  0  0  0  0  0  0
   -5.5036   11.2387   -7.0364 H   0  0  0  0  0  0  0  0  0  0  0  0
  1  2  1  0
  1  8  1  0
  1  9  1  0
  1 10  1  0
  2  3  1  0
  2  7  1  0
  2 11  1  0
  3  4  1  0
  3 12  1  0
  3 13  1  0
  4  5  1  0
  4 14  1  0
  4 15  1  0
  5  6  1  0
  5  7  1  0
  5 16  1  0
  6 17  1  0
  7 18  1  0
  7 19  1  0
M  CHG  1   2   1
M  END
> <intraLJ>
3.793     

> <intraEL>
3.185     

> <intraDihe>
12.263    

> <interLJ>
0.000     

> <interEJ>
0.000     

> <gridLJ>
-4.232    

> <gridEL>
0.000     

> <totalE>
15.008    

> <LGFE>
-4.232  

> <LE>
-0.605  

> <SMILES>
C[NH+]1CCC(O)C1

> <atom.dprop.GFE>
-0.15 -1.4 -0.3 -0.46 -0.44 -0.97 -0.49 0 0 0 0 0 0 0 0 0 0 0 0

> <atom.prop.CLASS>
PRPC MAMN PRPC PRPC PRPC MEOO PRPC NCLA NCLA NCLA NCLA NCLA NCLA NCLA NCLA NCLA NCLA NCLA NCLA

$$$$
