72_2
     RDKit          3D

 15 15  0  0  0  0  0  0  0  0999 V2000
   -3.8145   15.1367   -4.6611 N   0  0  0  0  0  0  0  0  0  0  0  0
   -3.8233   14.2309   -3.5253 C   0  0  0  0  0  0  0  0  0  0  0  0
   -3.0369   15.0184   -2.4731 C   0  0  0  0  0  0  0  0  0  0  0  0
   -1.5393   14.9340   -2.5587 C   0  0  0  0  0  0  0  0  0  0  0  0
   -2.2843   14.1915   -1.4731 C   0  0  0  0  0  0  0  0  0  0  0  0
   -4.2316   14.6812   -5.4600 H   0  0  0  0  0  0  0  0  0  0  0  0
   -2.8487   15.3794   -4.8344 H   0  0  0  0  0  0  0  0  0  0  0  0
   -4.3258   15.9673   -4.4020 H   0  0  0  0  0  0  0  0  0  0  0  0
   -3.2888   13.3158   -3.7586 H   0  0  0  0  0  0  0  0  0  0  0  0
   -4.8334   14.0545   -3.1686 H   0  0  0  0  0  0  0  0  0  0  0  0
   -3.4916   15.9383   -2.1231 H   0  0  0  0  0  0  0  0  0  0  0  0
   -0.9783   15.8039   -2.2340 H   0  0  0  0  0  0  0  0  0  0  0  0
   -1.0892   14.3116   -3.3227 H   0  0  0  0  0  0  0  0  0  0  0  0
   -2.3233   13.1128   -1.5654 H   0  0  0  0  0  0  0  0  0  0  0  0
   -2.1980   14.5965   -0.4710 H   0  0  0  0  0  0  0  0  0  0  0  0
  1  2  1  0
  1  6  1  0
  1  7  1  0
  1  8  1  0
  2  3  1  0
  2  9  1  0
  2 10  1  0
  3  4  1  0
  3  5  1  0
  3 11  1  0
  4  5  1  0
  4 12  1  0
  4 13  1  0
  5 14  1  0
  5 15  1  0
M  CHG  1   1   1
M  END
> <intraLJ>
-0.141    

> <intraEL>
2.818     

> <intraDihe>
2.478     

> <interLJ>
0.000     

> <interEJ>
0.000     

> <gridLJ>
-3.579    

> <gridEL>
0.000     

> <totalE>
1.577     

> <LGFE>
-3.579  

> <LE>
-0.716  

> <SMILES>
[NH3+]CC1CC1

> <atom.dprop.GFE>
-1 -0.45 -0.67 -0.67 -0.74 0 0 0 0 0 0 0 0 0 0

> <atom.prop.CLASS>
MAMN PRPC PRPC PRPC PRPC NCLA NCLA NCLA NCLA NCLA NCLA NCLA NCLA NCLA NCLA

$$$$
