61_2
     RDKit          3D

 17 17  0  0  0  0  0  0  0  0999 V2000
  -18.6943    6.8734   26.8074 C   0  0  0  0  0  0  0  0  0  0  0  0
  -18.1011    6.8025   25.3837 C   0  0  0  0  0  0  0  0  0  0  0  0
  -19.1058    7.1759   24.3419 N   0  0  0  0  0  0  0  0  0  0  0  0
  -20.3153    6.3040   24.4614 C   0  0  0  0  0  0  0  0  0  0  0  0
  -20.9336    6.3684   25.8746 C   0  0  0  0  0  0  0  0  0  0  0  0
  -19.9280    6.0510   26.9225 N   0  0  0  0  0  0  0  0  0  0  0  0
  -18.9211    7.9151   27.0465 H   0  0  0  0  0  0  0  0  0  0  0  0
  -17.9487    6.5169   27.5225 H   0  0  0  0  0  0  0  0  0  0  0  0
  -17.7664    5.7744   25.2191 H   0  0  0  0  0  0  0  0  0  0  0  0
  -17.2273    7.4577   25.3300 H   0  0  0  0  0  0  0  0  0  0  0  0
  -18.7006    7.0845   23.4192 H   0  0  0  0  0  0  0  0  0  0  0  0
  -19.3832    8.1366   24.4881 H   0  0  0  0  0  0  0  0  0  0  0  0
  -20.0375    5.2643   24.2720 H   0  0  0  0  0  0  0  0  0  0  0  0
  -21.0733    6.5932   23.7293 H   0  0  0  0  0  0  0  0  0  0  0  0
  -21.7605    5.6559   25.9335 H   0  0  0  0  0  0  0  0  0  0  0  0
  -21.3360    7.3704   26.0412 H   0  0  0  0  0  0  0  0  0  0  0  0
  -20.3290    6.1035   27.8588 H   0  0  0  0  0  0  0  0  0  0  0  0
  1  2  1  0
  1  6  1  0
  1  7  1  0
  1  8  1  0
  2  3  1  0
  2  9  1  0
  2 10  1  0
  3  4  1  0
  3 11  1  0
  3 12  1  0
  4  5  1  0
  4 13  1  0
  4 14  1  0
  5  6  1  0
  5 15  1  0
  5 16  1  0
  6 17  1  0
M  CHG  1   3   1
M  END
> <intraLJ>
1.222     

> <intraEL>
7.977     

> <intraDihe>
5.373     

> <interLJ>
0.000     

> <interEJ>
0.000     

> <gridLJ>
-2.432    

> <gridEL>
0.000     

> <totalE>
12.141    

> <LGFE>
-2.432  

> <LE>
-0.405  

> <SMILES>
C1C[NH2+]CCN1

> <atom.dprop.GFE>
-0.12 -0.11 -1.7 -0.16 -0.21 -0.16 0 0 0 0 0 0 0 0 0 0 0

> <atom.prop.CLASS>
PRPC PRPC MAMN PRPC PRPC GEND NCLA NCLA NCLA NCLA NCLA NCLA NCLA NCLA NCLA NCLA NCLA

$$$$
