73
     RDKit          3D

 13 13  0  0  0  0  0  0  0  0999 V2000
    6.9263   -4.9121    2.8873 O   0  0  0  0  0  0  0  0  0  0  0  0
    7.6697   -5.6451    2.2549 C   0  0  0  0  0  0  0  0  0  0  0  0
    8.4897   -6.7704    2.8423 C   0  0  0  0  0  0  0  0  0  0  0  0
    8.8805   -7.5990    1.6040 C   0  0  0  0  0  0  0  0  0  0  0  0
    8.8234   -6.5564    0.4785 C   0  0  0  0  0  0  0  0  0  0  0  0
    7.8349   -5.6087    0.9488 N   0  0  0  0  0  0  0  0  0  0  0  0
    7.8968   -7.3543    3.5442 H   0  0  0  0  0  0  0  0  0  0  0  0
    9.3737   -6.3503    3.3195 H   0  0  0  0  0  0  0  0  0  0  0  0
    8.1259   -8.3670    1.4240 H   0  0  0  0  0  0  0  0  0  0  0  0
    9.8729   -8.0426    1.7007 H   0  0  0  0  0  0  0  0  0  0  0  0
    8.5253   -7.0183   -0.4656 H   0  0  0  0  0  0  0  0  0  0  0  0
    9.7926   -6.0621    0.3714 H   0  0  0  0  0  0  0  0  0  0  0  0
    7.3672   -4.9264    0.3744 H   0  0  0  0  0  0  0  0  0  0  0  0
  1  2  2  0
  2  3  1  0
  2  6  1  0
  3  4  1  0
  3  7  1  0
  3  8  1  0
  4  5  1  0
  4  9  1  0
  4 10  1  0
  5  6  1  0
  5 11  1  0
  5 12  1  0
  6 13  1  0
M  END
> <intraLJ>
-0.403    

> <intraEL>
-2.564    

> <intraDihe>
6.839     

> <interLJ>
0.000     

> <interEJ>
0.000     

> <gridLJ>
-4.037    

> <gridEL>
0.000     

> <totalE>
-0.165    

> <LGFE>
-4.037  

> <LE>
-0.673  

> <SMILES>
O=C1CCCN1

> <atom.dprop.GFE>
-1.5 -0.4 -0.45 -0.31 -0.38 -1 0 0 0 0 0 0 0

> <atom.prop.CLASS>
GENA GEHC PRPC PRPC PRPC GEND NCLA NCLA NCLA NCLA NCLA NCLA NCLA

$$$$
