71_2
     RDKit          3D

 19 19  0  0  0  0  0  0  0  0999 V2000
   -8.6599   -0.8768   11.6009 C   0  0  0  0  0  0  0  0  0  0  0  0
   -9.3738   -0.3484   10.3585 C   0  0  0  0  0  0  0  0  0  0  0  0
   -9.4885    1.1342   10.3184 N   0  0  0  0  0  0  0  0  0  0  0  0
   -9.8625    1.7908   11.6085 C   0  0  0  0  0  0  0  0  0  0  0  0
  -10.8760    1.0108   12.4569 C   0  0  0  0  0  0  0  0  0  0  0  0
  -10.1553    0.1160   13.2973 O   0  0  0  0  0  0  0  0  0  0  0  0
   -9.6710   -1.0972   12.7368 C   0  0  0  0  0  0  0  0  0  0  0  0
   -7.8583   -0.2103   11.9213 H   0  0  0  0  0  0  0  0  0  0  0  0
   -8.2208   -1.8455   11.3572 H   0  0  0  0  0  0  0  0  0  0  0  0
  -10.3741   -0.7925   10.3550 H   0  0  0  0  0  0  0  0  0  0  0  0
   -8.8581   -0.7039    9.4610 H   0  0  0  0  0  0  0  0  0  0  0  0
  -10.1699    1.3700    9.6078 H   0  0  0  0  0  0  0  0  0  0  0  0
   -8.6022    1.5307   10.0263 H   0  0  0  0  0  0  0  0  0  0  0  0
  -10.2329    2.8033   11.4262 H   0  0  0  0  0  0  0  0  0  0  0  0
   -8.9729    1.8792   12.2375 H   0  0  0  0  0  0  0  0  0  0  0  0
  -11.6155    0.4953   11.8425 H   0  0  0  0  0  0  0  0  0  0  0  0
  -11.3972    1.7222   13.1003 H   0  0  0  0  0  0  0  0  0  0  0  0
   -9.1733   -1.6537   13.5343 H   0  0  0  0  0  0  0  0  0  0  0  0
  -10.5065   -1.7079   12.3884 H   0  0  0  0  0  0  0  0  0  0  0  0
  1  2  1  0
  1  7  1  0
  1  8  1  0
  1  9  1  0
  2  3  1  0
  2 10  1  0
  2 11  1  0
  3  4  1  0
  3 12  1  0
  3 13  1  0
  4  5  1  0
  4 14  1  0
  4 15  1  0
  5  6  1  0
  5 16  1  0
  5 17  1  0
  6  7  1  0
  7 18  1  0
  7 19  1  0
M  CHG  1   3   1
M  END
> <intraLJ>
1.159     

> <intraEL>
4.103     

> <intraDihe>
11.900    

> <interLJ>
0.000     

> <interEJ>
0.000     

> <gridLJ>
-3.005    

> <gridEL>
0.000     

> <totalE>
14.157    

> <LGFE>
-3.005  

> <LE>
-0.429  

> <SMILES>
C1C[NH2+]CCOC1

> <atom.dprop.GFE>
-0.13 0.13 -2.2 0.11 -0.21 -0.46 -0.21 0 0 0 0 0 0 0 0 0 0 0 0

> <atom.prop.CLASS>
PRPC PRPC MAMN PRPC PRPC GENA PRPC NCLA NCLA NCLA NCLA NCLA NCLA NCLA NCLA NCLA NCLA NCLA NCLA

$$$$
