18
     RDKit          3D

 13 13  0  0  0  0  0  0  0  0999 V2000
  -24.2170    8.7758    9.7035 O   0  0  0  0  0  0  0  0  0  0  0  0
  -25.0102    8.0608   10.6681 C   0  0  0  0  0  0  0  0  0  0  0  0
  -25.4416    9.0479   11.8745 C   0  0  0  0  0  0  0  0  0  0  0  0
  -24.3268    8.2149   12.9221 S   0  0  0  0  0  0  0  0  0  0  0  0
  -25.0187    7.5559   13.9769 O   0  0  0  0  0  0  0  0  0  0  0  0
  -23.1814    9.0081   13.2119 O   0  0  0  0  0  0  0  0  0  0  0  0
  -24.0506    7.1344   11.5854 C   0  0  0  0  0  0  0  0  0  0  0  0
  -24.7780    9.2916    9.0989 H   0  0  0  0  0  0  0  0  0  0  0  0
  -25.8282    7.5329   10.1964 H   0  0  0  0  0  0  0  0  0  0  0  0
  -26.5024    8.9219   12.0446 H   0  0  0  0  0  0  0  0  0  0  0  0
  -25.2288   10.0631   11.5666 H   0  0  0  0  0  0  0  0  0  0  0  0
  -23.0752    7.1004   11.1178 H   0  0  0  0  0  0  0  0  0  0  0  0
  -24.4829    6.1439   11.6251 H   0  0  0  0  0  0  0  0  0  0  0  0
  1  2  1  0
  1  8  1  0
  2  3  1  0
  2  7  1  0
  2  9  1  0
  3  4  1  0
  3 10  1  0
  3 11  1  0
  4  5  2  0
  4  6  2  0
  4  7  1  0
  7 12  1  0
  7 13  1  0
M  END
> <intraLJ>
0.307     

> <intraEL>
-1.458    

> <intraDihe>
23.153    

> <interLJ>
0.000     

> <interEJ>
0.000     

> <gridLJ>
-3.498    

> <gridEL>
0.000     

> <totalE>
18.504    

> <LGFE>
-3.498  

> <LE>
-0.500  

> <SMILES>
O=S1(=O)CC(O)C1

> <atom.dprop.GFE>
-0.23 -0.48 -0.36 0 -0.68 -1.2 -0.56 0 0 0 0 0 0

> <atom.prop.CLASS>
MEOO PRPC PRPC NCLA GENA GENA PRPC NCLA NCLA NCLA NCLA NCLA NCLA

$$$$
