49_1
     RDKit          3D

 18 18  0  0  1  0  0  0  0  0999 V2000
  -22.7323   -2.6801   31.6100 O   0  0  0  0  0  0  0  0  0  0  0  0
  -23.2663   -3.9306   31.1910 C   0  0  0  0  0  0  0  0  0  0  0  0
  -24.7980   -3.9361   31.3079 C   0  0  0  0  0  0  0  0  0  0  0  0
  -25.4518   -5.2477   30.8769 C   0  0  0  0  0  0  0  0  0  0  0  0
  -26.8691   -4.8275   30.4459 C   0  0  0  0  0  0  0  0  0  0  0  0
  -26.8514   -3.2999   30.5013 C   0  0  0  0  0  0  0  0  0  0  0  0
  -25.4313   -2.9254   30.4501 N   0  0  0  0  0  0  0  0  0  0  0  0
  -21.8274   -2.6009   31.2968 H   0  0  0  0  0  0  0  0  0  0  0  0
  -22.9976   -4.1243   30.1520 H   0  0  0  0  0  0  0  0  0  0  0  0
  -22.8593   -4.7237   31.8192 H   0  0  0  0  0  0  0  0  0  0  0  0
  -25.0658   -3.7465   32.3498 H   0  0  0  0  0  0  0  0  0  0  0  0
  -24.9216   -5.6598   30.0175 H   0  0  0  0  0  0  0  0  0  0  0  0
  -25.4726   -5.9650   31.6982 H   0  0  0  0  0  0  0  0  0  0  0  0
  -27.6255   -5.2235   31.1232 H   0  0  0  0  0  0  0  0  0  0  0  0
  -27.0585   -5.1603   29.4249 H   0  0  0  0  0  0  0  0  0  0  0  0
  -27.2809   -2.9782   31.4528 H   0  0  0  0  0  0  0  0  0  0  0  0
  -27.4149   -2.8582   29.6769 H   0  0  0  0  0  0  0  0  0  0  0  0
  -25.2420   -1.9884   30.7872 H   0  0  0  0  0  0  0  0  0  0  0  0
  1  2  1  0
  1  8  1  0
  2  3  1  0
  2  9  1  0
  2 10  1  0
  3  4  1  0
  3  7  1  0
  3 11  1  0
  4  5  1  0
  4 12  1  0
  4 13  1  0
  5  6  1  0
  5 14  1  0
  5 15  1  0
  6  7  1  0
  6 16  1  0
  6 17  1  0
  7 18  1  0
M  END
> <intraLJ>
0.312     

> <intraEL>
1.551     

> <intraDihe>
11.902    

> <interLJ>
0.000     

> <interEJ>
0.000     

> <gridLJ>
-2.341    

> <gridEL>
0.000     

> <totalE>
11.424    

> <LGFE>
-2.341  

> <LE>
-0.334  

> <SMILES>
OCC1CCCN1

> <atom.dprop.GFE>
-0.37 -0.27 -0.33 -0.27 -0.32 -0.31 -0.46 0 0 0 0 0 0 0 0 0 0 0

> <atom.prop.CLASS>
MEOO PRPC PRPC PRPC PRPC PRPC GEND NCLA NCLA NCLA NCLA NCLA NCLA NCLA NCLA NCLA NCLA NCLA

$$$$
