34
     RDKit          3D

 19 19  0  0  0  0  0  0  0  0999 V2000
   24.5901   10.4124  -16.5390 O   0  0  0  0  0  0  0  0  0  0  0  0
   23.7867   11.5632  -16.6518 C   0  0  0  0  0  0  0  0  0  0  0  0
   22.6192   11.2624  -17.5981 C   0  0  0  0  0  0  0  0  0  0  0  0
   21.7719   12.5209  -17.8507 C   0  0  0  0  0  0  0  0  0  0  0  0
   22.6401   13.6682  -18.3878 C   0  0  0  0  0  0  0  0  0  0  0  0
   23.8119   13.9685  -17.4409 C   0  0  0  0  0  0  0  0  0  0  0  0
   24.6511   12.7056  -17.1939 C   0  0  0  0  0  0  0  0  0  0  0  0
   24.0531    9.6933  -16.1999 H   0  0  0  0  0  0  0  0  0  0  0  0
   23.3986   11.8434  -15.6698 H   0  0  0  0  0  0  0  0  0  0  0  0
   21.9886   10.4865  -17.1630 H   0  0  0  0  0  0  0  0  0  0  0  0
   23.0154   10.9000  -18.5475 H   0  0  0  0  0  0  0  0  0  0  0  0
   21.3001   12.8333  -16.9164 H   0  0  0  0  0  0  0  0  0  0  0  0
   20.9879   12.2911  -18.5731 H   0  0  0  0  0  0  0  0  0  0  0  0
   22.0271   14.5640  -18.5031 H   0  0  0  0  0  0  0  0  0  0  0  0
   23.0327   13.3933  -19.3686 H   0  0  0  0  0  0  0  0  0  0  0  0
   23.4237   14.3380  -16.4892 H   0  0  0  0  0  0  0  0  0  0  0  0
   24.4437   14.7427  -17.8796 H   0  0  0  0  0  0  0  0  0  0  0  0
   25.1132   12.3878  -18.1302 H   0  0  0  0  0  0  0  0  0  0  0  0
   25.4412   12.9266  -16.4758 H   0  0  0  0  0  0  0  0  0  0  0  0
  1  2  1  0
  1  8  1  0
  2  3  1  0
  2  7  1  0
  2  9  1  0
  3  4  1  0
  3 10  1  0
  3 11  1  0
  4  5  1  0
  4 12  1  0
  4 13  1  0
  5  6  1  0
  5 14  1  0
  5 15  1  0
  6  7  1  0
  6 16  1  0
  6 17  1  0
  7 18  1  0
  7 19  1  0
M  END
> <intraLJ>
-0.471    

> <intraEL>
-1.198    

> <intraDihe>
8.631     

> <interLJ>
0.000     

> <interEJ>
0.000     

> <gridLJ>
-2.820    

> <gridEL>
0.000     

> <totalE>
4.141     

> <LGFE>
-2.820  

> <LE>
-0.403  

> <SMILES>
OC1CCCCC1

> <atom.dprop.GFE>
-0.5 -0.37 -0.43 -0.48 -0.37 -0.36 -0.32 0 0 0 0 0 0 0 0 0 0 0 0

> <atom.prop.CLASS>
MEOO PRPC PRPC PRPC PRPC PRPC PRPC NCLA NCLA NCLA NCLA NCLA NCLA NCLA NCLA NCLA NCLA NCLA NCLA

$$$$
