19_2
     RDKit          3D

 11 11  0  0  0  0  0  0  0  0999 V2000
   17.7466   -1.0957  -14.5787 N   0  0  0  0  0  0  0  0  0  0  0  0
   18.0378   -2.0332  -13.5661 C   0  0  0  0  0  0  0  0  0  0  0  0
   17.1963   -2.7587  -12.7956 C   0  0  0  0  0  0  0  0  0  0  0  0
   17.9977   -3.5289  -11.9571 C   0  0  0  0  0  0  0  0  0  0  0  0
   19.2712   -3.3205  -12.1736 N   0  0  0  0  0  0  0  0  0  0  0  0
   19.2927   -2.3906  -13.1846 N   0  0  0  0  0  0  0  0  0  0  0  0
   18.4512   -0.3531  -14.7166 H   0  0  0  0  0  0  0  0  0  0  0  0
   16.7828   -0.7276  -14.5379 H   0  0  0  0  0  0  0  0  0  0  0  0
   16.1392   -2.7411  -12.8295 H   0  0  0  0  0  0  0  0  0  0  0  0
   17.6428   -4.2093  -11.2249 H   0  0  0  0  0  0  0  0  0  0  0  0
   20.1608   -2.0201  -13.6076 H   0  0  0  0  0  0  0  0  0  0  0  0
  1  2  1  0
  1  7  1  0
  1  8  1  0
  2  3  2  0
  2  6  1  0
  3  4  1  0
  3  9  1  0
  4  5  2  0
  4 10  1  0
  5  6  1  0
  6 11  1  0
M  END
> <intraLJ>
-0.470    

> <intraEL>
-4.943    

> <intraDihe>
1.563     

> <interLJ>
0.000     

> <interEJ>
0.000     

> <gridLJ>
-2.927    

> <gridEL>
0.000     

> <totalE>
-6.777    

> <LGFE>
-2.927  

> <LE>
-0.488  

> <SMILES>
Nc1ccn[nH]1

> <atom.dprop.GFE>
-1.1 -0.23 -0.022 -0.11 -0.64 -0.84 0 0 0 0 0

> <atom.prop.CLASS>
GEND GEHC GEHC GEHC GENA GEND NCLA NCLA NCLA NCLA NCLA

$$$$
