35_1
     RDKit          3D

 10 10  0  0  0  0  0  0  0  0999 V2000
  -40.5087    6.8094   29.9370 N   0  0  0  0  0  0  0  0  0  0  0  0
  -40.4510    5.5198   29.5180 C   0  0  0  0  0  0  0  0  0  0  0  0
  -39.9325    4.5528   30.2831 N   0  0  0  0  0  0  0  0  0  0  0  0
  -40.0714    3.5128   29.5397 C   0  0  0  0  0  0  0  0  0  0  0  0
  -40.6569    3.8647   28.3906 N   0  0  0  0  0  0  0  0  0  0  0  0
  -40.9187    5.1813   28.3726 N   0  0  0  0  0  0  0  0  0  0  0  0
  -41.2951    7.2562   29.4580 H   0  0  0  0  0  0  0  0  0  0  0  0
  -40.5817    6.8099   30.9585 H   0  0  0  0  0  0  0  0  0  0  0  0
  -39.7930    2.5094   29.7382 H   0  0  0  0  0  0  0  0  0  0  0  0
  -40.8816    3.2152   27.6170 H   0  0  0  0  0  0  0  0  0  0  0  0
  1  2  1  0
  1  7  1  0
  1  8  1  0
  2  3  1  0
  2  6  2  0
  3  4  2  0
  4  5  1  0
  4  9  1  0
  5  6  1  0
  5 10  1  0
M  END
> <intraLJ>
0.124     

> <intraEL>
-9.860    

> <intraDihe>
2.848     

> <interLJ>
0.000     

> <interEJ>
0.000     

> <gridLJ>
-2.161    

> <gridEL>
0.000     

> <totalE>
-9.049    

> <LGFE>
-2.161  

> <LE>
-0.360  

> <SMILES>
Nc1nc[nH]n1

> <atom.dprop.GFE>
-0.28 -0.18 -0.71 -0.14 -0.35 -0.51 0 0 0 0

> <atom.prop.CLASS>
GEND GEHC GENA GEHC GEND GENA NCLA NCLA NCLA NCLA

$$$$
