81_1
     RDKit          3D

 18 18  0  0  1  0  0  0  0  0999 V2000
   -6.6856    4.6218  -12.5033 N   0  0  0  0  0  0  0  0  0  0  0  0
   -5.5358    4.2205  -11.6530 C   0  0  0  0  0  0  0  0  0  0  0  0
   -4.2387    4.9824  -11.9870 C   0  0  0  0  0  0  0  0  0  0  0  0
   -3.1216    4.7269  -10.9785 C   0  0  0  0  0  0  0  0  0  0  0  0
   -2.2027    5.9314  -11.1823 C   0  0  0  0  0  0  0  0  0  0  0  0
   -3.0952    6.9564  -11.8848 C   0  0  0  0  0  0  0  0  0  0  0  0
   -4.3891    6.3864  -11.8970 O   0  0  0  0  0  0  0  0  0  0  0  0
   -7.5240    4.1266  -12.2324 H   0  0  0  0  0  0  0  0  0  0  0  0
   -6.4880    4.4666  -13.4823 H   0  0  0  0  0  0  0  0  0  0  0  0
   -5.7741    4.4055  -10.6038 H   0  0  0  0  0  0  0  0  0  0  0  0
   -5.3533    3.1516  -11.7805 H   0  0  0  0  0  0  0  0  0  0  0  0
   -3.8971    4.7066  -12.9860 H   0  0  0  0  0  0  0  0  0  0  0  0
   -3.5303    4.7408   -9.9663 H   0  0  0  0  0  0  0  0  0  0  0  0
   -2.6078    3.7863  -11.1781 H   0  0  0  0  0  0  0  0  0  0  0  0
   -1.3617    5.6725  -11.8277 H   0  0  0  0  0  0  0  0  0  0  0  0
   -1.8471    6.3155  -10.2256 H   0  0  0  0  0  0  0  0  0  0  0  0
   -2.7507    7.1085  -12.9102 H   0  0  0  0  0  0  0  0  0  0  0  0
   -3.1020    7.9082  -11.3508 H   0  0  0  0  0  0  0  0  0  0  0  0
  1  2  1  0
  1  8  1  0
  1  9  1  0
  2  3  1  0
  2 10  1  0
  2 11  1  0
  3  4  1  0
  3  7  1  0
  3 12  1  0
  4  5  1  0
  4 13  1  0
  4 14  1  0
  5  6  1  0
  5 15  1  0
  5 16  1  0
  6  7  1  0
  6 17  1  0
  6 18  1  0
M  END
> <intraLJ>
-0.311    

> <intraEL>
3.004     

> <intraDihe>
9.290     

> <interLJ>
0.000     

> <interEJ>
0.000     

> <gridLJ>
-2.565    

> <gridEL>
0.000     

> <totalE>
9.418     

> <LGFE>
-2.565  

> <LE>
-0.366  

> <SMILES>
NCC1CCCO1

> <atom.dprop.GFE>
-0.96 -0.2 -0.21 -0.2 -0.16 -0.19 -0.64 0 0 0 0 0 0 0 0 0 0 0

> <atom.prop.CLASS>
GEND PRPC PRPC PRPC PRPC PRPC GENA NCLA NCLA NCLA NCLA NCLA NCLA NCLA NCLA NCLA NCLA NCLA

$$$$
