75
     RDKit          3D

 11 11  0  0  0  0  0  0  0  0999 V2000
   21.8644   -3.8211  -13.0606 O   0  0  0  0  0  0  0  0  0  0  0  0
   21.4006   -2.9645  -12.0299 S   0  0  0  0  0  0  0  0  0  0  0  0
   22.2006   -1.8816  -11.5863 O   0  0  0  0  0  0  0  0  0  0  0  0
   20.7903   -3.8324  -10.6630 C   0  0  0  0  0  0  0  0  0  0  0  0
   19.3922   -3.0692  -10.9369 C   0  0  0  0  0  0  0  0  0  0  0  0
   19.8901   -2.5130  -12.3189 N   0  0  0  0  0  0  0  0  0  0  0  0
   21.1434   -3.5912   -9.6691 H   0  0  0  0  0  0  0  0  0  0  0  0
   20.6514   -4.9032  -10.7403 H   0  0  0  0  0  0  0  0  0  0  0  0
   19.2106   -2.2795  -10.2200 H   0  0  0  0  0  0  0  0  0  0  0  0
   18.5529   -3.7449  -11.0290 H   0  0  0  0  0  0  0  0  0  0  0  0
   19.4052   -2.9724  -13.0849 H   0  0  0  0  0  0  0  0  0  0  0  0
  1  2  2  0
  2  3  2  0
  2  4  1  0
  2  6  1  0
  4  5  1  0
  4  7  1  0
  4  8  1  0
  5  6  1  0
  5  9  1  0
  5 10  1  0
  6 11  1  0
M  END
> <intraLJ>
-0.439    

> <intraEL>
-3.883    

> <intraDihe>
14.792    

> <interLJ>
0.000     

> <interEJ>
0.000     

> <gridLJ>
-2.318    

> <gridEL>
0.000     

> <totalE>
8.152     

> <LGFE>
-2.318  

> <LE>
-0.386  

> <SMILES>
O=S1(=O)CCN1

> <atom.dprop.GFE>
-0.5 0 -0.34 -0.35 -0.31 -0.82 0 0 0 0 0

> <atom.prop.CLASS>
GENA NCLA GENA PRPC PRPC GEND NCLA NCLA NCLA NCLA NCLA

$$$$
