27_2
     RDKit          3D

 12 12  0  0  0  0  0  0  0  0999 V2000
  -20.1756   10.1669   21.3517 N   0  0  0  0  0  0  0  0  0  0  0  0
  -19.6391    9.1270   21.9443 C   0  0  0  0  0  0  0  0  0  0  0  0
  -20.0053    8.6391   23.1073 N   0  0  0  0  0  0  0  0  0  0  0  0
  -19.2117    7.5452   23.4039 C   0  0  0  0  0  0  0  0  0  0  0  0
  -18.3553    7.3991   22.3717 C   0  0  0  0  0  0  0  0  0  0  0  0
  -18.6478    8.4077   21.4701 N   0  0  0  0  0  0  0  0  0  0  0  0
  -19.8239   10.4805   20.4392 H   0  0  0  0  0  0  0  0  0  0  0  0
  -20.9503   10.6724   21.7963 H   0  0  0  0  0  0  0  0  0  0  0  0
  -20.7668    9.0358   23.6750 H   0  0  0  0  0  0  0  0  0  0  0  0
  -19.3150    6.9761   24.2955 H   0  0  0  0  0  0  0  0  0  0  0  0
  -17.5876    6.6820   22.2130 H   0  0  0  0  0  0  0  0  0  0  0  0
  -18.1900    8.5972   20.5687 H   0  0  0  0  0  0  0  0  0  0  0  0
  1  2  2  0
  1  7  1  0
  1  8  1  0
  2  3  1  0
  2  6  1  0
  3  4  1  0
  3  9  1  0
  4  5  2  0
  4 10  1  0
  5  6  1  0
  5 11  1  0
  6 12  1  0
M  CHG  1   1   1
M  END
> <intraLJ>
-0.384    

> <intraEL>
3.349     

> <intraDihe>
0.000     

> <interLJ>
0.000     

> <interEJ>
0.000     

> <gridLJ>
-3.993    

> <gridEL>
0.000     

> <totalE>
-1.028    

> <LGFE>
-3.993  

> <LE>
-0.666  

> <SMILES>
[NH2+]=c1[nH]cc[nH]1

> <atom.dprop.GFE>
-2.3 -1.9 0 0.1 0.17 0 0 0 0 0 0 0

> <atom.prop.CLASS>
MAMN MAMC NCLA GEHC GEHC NCLA NCLA NCLA NCLA NCLA NCLA NCLA

$$$$
