61_2
     RDKit          3D

 17 17  0  0  0  0  0  0  0  0999 V2000
  -31.2427   -4.2168    7.3487 C   0  0  0  0  0  0  0  0  0  0  0  0
  -30.9115   -2.9392    8.1500 C   0  0  0  0  0  0  0  0  0  0  0  0
  -31.7344   -2.8319    9.3932 N   0  0  0  0  0  0  0  0  0  0  0  0
  -33.1894   -2.8860    9.0502 C   0  0  0  0  0  0  0  0  0  0  0  0
  -33.5467   -4.1624    8.2587 C   0  0  0  0  0  0  0  0  0  0  0  0
  -32.6963   -4.3068    7.0478 N   0  0  0  0  0  0  0  0  0  0  0  0
  -30.9303   -5.0899    7.9267 H   0  0  0  0  0  0  0  0  0  0  0  0
  -30.6754   -4.2089    6.4147 H   0  0  0  0  0  0  0  0  0  0  0  0
  -31.1146   -2.0832    7.5003 H   0  0  0  0  0  0  0  0  0  0  0  0
  -29.8450   -2.9379    8.3915 H   0  0  0  0  0  0  0  0  0  0  0  0
  -31.5227   -1.9687    9.8770 H   0  0  0  0  0  0  0  0  0  0  0  0
  -31.5144   -3.6122    9.9964 H   0  0  0  0  0  0  0  0  0  0  0  0
  -33.4505   -2.0286    8.4253 H   0  0  0  0  0  0  0  0  0  0  0  0
  -33.8008   -2.8471    9.9551 H   0  0  0  0  0  0  0  0  0  0  0  0
  -34.5981   -4.1148    7.9635 H   0  0  0  0  0  0  0  0  0  0  0  0
  -33.4151   -5.0316    8.9075 H   0  0  0  0  0  0  0  0  0  0  0  0
  -32.9209   -5.1547    6.5277 H   0  0  0  0  0  0  0  0  0  0  0  0
  1  2  1  0
  1  6  1  0
  1  7  1  0
  1  8  1  0
  2  3  1  0
  2  9  1  0
  2 10  1  0
  3  4  1  0
  3 11  1  0
  3 12  1  0
  4  5  1  0
  4 13  1  0
  4 14  1  0
  5  6  1  0
  5 15  1  0
  5 16  1  0
  6 17  1  0
M  CHG  1   3   1
M  END
> <intraLJ>
1.222     

> <intraEL>
7.977     

> <intraDihe>
5.373     

> <interLJ>
0.000     

> <interEJ>
0.000     

> <gridLJ>
-2.803    

> <gridEL>
0.000     

> <totalE>
11.770    

> <LGFE>
-2.803  

> <LE>
-0.467  

> <SMILES>
C1C[NH2+]CCN1

> <atom.dprop.GFE>
-0.11 0.38 -3.3 0.31 0.018 -0.11 0 0 0 0 0 0 0 0 0 0 0

> <atom.prop.CLASS>
PRPC PRPC MAMN PRPC PRPC GEND NCLA NCLA NCLA NCLA NCLA NCLA NCLA NCLA NCLA NCLA NCLA

$$$$
