40_2
     RDKit          3D

 10 10  0  0  0  0  0  0  0  0999 V2000
    4.0774   -4.4257   -7.4324 O   0  0  0  0  0  0  0  0  0  0  0  0
    3.0399   -3.9126   -6.8941 C   0  0  0  0  0  0  0  0  0  0  0  0
    1.9486   -4.7089   -6.5169 C   0  0  0  0  0  0  0  0  0  0  0  0
    0.8517   -4.1144   -5.9403 C   0  0  0  0  0  0  0  0  0  0  0  0
    0.7802   -2.7820   -5.7221 N   0  0  0  0  0  0  0  0  0  0  0  0
    1.8171   -2.0076   -6.0782 N   0  0  0  0  0  0  0  0  0  0  0  0
    2.9056   -2.5346   -6.6412 C   0  0  0  0  0  0  0  0  0  0  0  0
    1.9946   -5.7513   -6.6839 H   0  0  0  0  0  0  0  0  0  0  0  0
    0.0217   -4.7022   -5.6508 H   0  0  0  0  0  0  0  0  0  0  0  0
    3.7011   -1.8928   -6.9080 H   0  0  0  0  0  0  0  0  0  0  0  0
  1  2  1  0
  2  3  2  0
  2  7  1  0
  3  4  1  0
  3  8  1  0
  4  5  2  0
  4  9  1  0
  5  6  1  0
  6  7  2  0
  7 10  1  0
M  CHG  1   1  -1
M  END
> <intraLJ>
15.492    

> <intraEL>
-6.927    

> <intraDihe>
0.000     

> <interLJ>
0.000     

> <interEJ>
0.000     

> <gridLJ>
-4.273    

> <gridEL>
0.000     

> <totalE>
4.292     

> <LGFE>
-4.273  

> <LE>
-0.610  

> <SMILES>
[O-]c1ccnnc1

> <atom.dprop.GFE>
0 -0.13 -0.17 -0.23 -1.8 -1.8 -0.2 0 0 0

> <atom.prop.CLASS>
NCLA ACEC BENC BENC GENA GENA BENC NCLA NCLA NCLA

$$$$
