34
     RDKit          3D

 19 19  0  0  0  0  0  0  0  0999 V2000
  -39.9132   -1.1372   26.5279 O   0  0  0  0  0  0  0  0  0  0  0  0
  -41.0704   -0.3824   26.7995 C   0  0  0  0  0  0  0  0  0  0  0  0
  -42.0620   -0.5617   25.6447 C   0  0  0  0  0  0  0  0  0  0  0  0
  -43.2988    0.3333   25.8319 C   0  0  0  0  0  0  0  0  0  0  0  0
  -42.8917    1.8056   25.9904 C   0  0  0  0  0  0  0  0  0  0  0  0
  -41.8959    1.9856   27.1461 C   0  0  0  0  0  0  0  0  0  0  0  0
  -40.6652    1.0870   26.9506 C   0  0  0  0  0  0  0  0  0  0  0  0
  -40.1616   -2.0590   26.4320 H   0  0  0  0  0  0  0  0  0  0  0  0
  -41.5276   -0.7248   27.7306 H   0  0  0  0  0  0  0  0  0  0  0  0
  -42.3776   -1.6042   25.5945 H   0  0  0  0  0  0  0  0  0  0  0  0
  -41.5681   -0.2999   24.7081 H   0  0  0  0  0  0  0  0  0  0  0  0
  -43.8459    0.0133   26.7215 H   0  0  0  0  0  0  0  0  0  0  0  0
  -43.9553    0.2299   24.9673 H   0  0  0  0  0  0  0  0  0  0  0  0
  -43.7809    2.4098   26.1792 H   0  0  0  0  0  0  0  0  0  0  0  0
  -42.4320    2.1533   25.0632 H   0  0  0  0  0  0  0  0  0  0  0  0
  -42.3847    1.7312   28.0891 H   0  0  0  0  0  0  0  0  0  0  0  0
  -41.5786    3.0287   27.1926 H   0  0  0  0  0  0  0  0  0  0  0  0
  -40.1251    1.4004   26.0555 H   0  0  0  0  0  0  0  0  0  0  0  0
  -39.9998    1.1870   27.8086 H   0  0  0  0  0  0  0  0  0  0  0  0
  1  2  1  0
  1  8  1  0
  2  3  1  0
  2  7  1  0
  2  9  1  0
  3  4  1  0
  3 10  1  0
  3 11  1  0
  4  5  1  0
  4 12  1  0
  4 13  1  0
  5  6  1  0
  5 14  1  0
  5 15  1  0
  6  7  1  0
  6 16  1  0
  6 17  1  0
  7 18  1  0
  7 19  1  0
M  END
> <intraLJ>
-0.471    

> <intraEL>
-1.198    

> <intraDihe>
8.631     

> <interLJ>
0.000     

> <interEJ>
0.000     

> <gridLJ>
-2.185    

> <gridEL>
0.000     

> <totalE>
4.777     

> <LGFE>
-2.185  

> <LE>
-0.312  

> <SMILES>
OC1CCCCC1

> <atom.dprop.GFE>
-0.52 -0.41 -0.26 -0.13 -0.2 -0.31 -0.36 0 0 0 0 0 0 0 0 0 0 0 0

> <atom.prop.CLASS>
MEOO PRPC PRPC PRPC PRPC PRPC PRPC NCLA NCLA NCLA NCLA NCLA NCLA NCLA NCLA NCLA NCLA NCLA NCLA

$$$$
