67
     RDKit          3D

 15 15  0  0  1  0  0  0  0  0999 V2000
  -19.1008   -5.6024   25.2109 O   0  0  0  0  0  0  0  0  0  0  0  0
  -19.9636   -6.3543   26.0664 C   0  0  0  0  0  0  0  0  0  0  0  0
  -19.5675   -7.8234   26.1870 C   0  0  0  0  0  0  0  0  0  0  0  0
  -20.2041   -8.2554   27.3753 O   0  0  0  0  0  0  0  0  0  0  0  0
  -20.0837   -7.1988   28.3202 C   0  0  0  0  0  0  0  0  0  0  0  0
  -19.8726   -5.8984   27.5319 C   0  0  0  0  0  0  0  0  0  0  0  0
  -18.5867   -5.3601   27.7907 O   0  0  0  0  0  0  0  0  0  0  0  0
  -19.2409   -5.8744   24.2979 H   0  0  0  0  0  0  0  0  0  0  0  0
  -21.0003   -6.2864   25.7325 H   0  0  0  0  0  0  0  0  0  0  0  0
  -18.4843   -7.9070   26.2923 H   0  0  0  0  0  0  0  0  0  0  0  0
  -19.9123   -8.3994   25.3275 H   0  0  0  0  0  0  0  0  0  0  0  0
  -20.9864   -7.1347   28.9288 H   0  0  0  0  0  0  0  0  0  0  0  0
  -19.2221   -7.3772   28.9660 H   0  0  0  0  0  0  0  0  0  0  0  0
  -20.6524   -5.1697   27.7575 H   0  0  0  0  0  0  0  0  0  0  0  0
  -18.2628   -5.0744   26.9227 H   0  0  0  0  0  0  0  0  0  0  0  0
  1  2  1  0
  1  8  1  0
  2  3  1  0
  2  6  1  0
  2  9  1  0
  3  4  1  0
  3 10  1  0
  3 11  1  0
  4  5  1  0
  5  6  1  0
  5 12  1  0
  5 13  1  0
  6  7  1  0
  6 14  1  0
  7 15  1  0
M  END
> <intraLJ>
4.089     

> <intraEL>
1.909     

> <intraDihe>
14.436    

> <interLJ>
0.000     

> <interEJ>
0.000     

> <gridLJ>
-3.583    

> <gridEL>
0.000     

> <totalE>
16.851    

> <LGFE>
-3.583  

> <LE>
-0.512  

> <SMILES>
OC1COCC1O

> <atom.dprop.GFE>
-1.1 -0.32 -0.33 -0.74 -0.35 -0.29 -0.42 0 0 0 0 0 0 0 0

> <atom.prop.CLASS>
MEOO PRPC PRPC GENA PRPC PRPC MEOO NCLA NCLA NCLA NCLA NCLA NCLA NCLA NCLA

$$$$
