46_1
     RDKit          3D

 14 14  0  0  0  0  0  0  0  0999 V2000
  -39.1883    4.9596   31.0887 C   0  0  0  0  0  0  0  0  0  0  0  0
  -40.0075    5.9564   30.2511 C   0  0  0  0  0  0  0  0  0  0  0  0
  -39.5866    5.6805   28.8091 C   0  0  0  0  0  0  0  0  0  0  0  0
  -39.0879    4.2990   28.8084 N   0  0  0  0  0  0  0  0  0  0  0  0
  -38.3320    4.2194   30.0651 C   0  0  0  0  0  0  0  0  0  0  0  0
  -39.8610    4.2533   31.5761 H   0  0  0  0  0  0  0  0  0  0  0  0
  -38.5641    5.4655   31.8260 H   0  0  0  0  0  0  0  0  0  0  0  0
  -39.7887    6.9892   30.5258 H   0  0  0  0  0  0  0  0  0  0  0  0
  -41.0710    5.7458   30.3678 H   0  0  0  0  0  0  0  0  0  0  0  0
  -38.7767    6.3643   28.5430 H   0  0  0  0  0  0  0  0  0  0  0  0
  -40.4195    5.8111   28.1143 H   0  0  0  0  0  0  0  0  0  0  0  0
  -38.5355    4.0717   27.9908 H   0  0  0  0  0  0  0  0  0  0  0  0
  -38.1510    3.1847   30.3641 H   0  0  0  0  0  0  0  0  0  0  0  0
  -37.3792    4.7432   29.9563 H   0  0  0  0  0  0  0  0  0  0  0  0
  1  2  1  0
  1  5  1  0
  1  6  1  0
  1  7  1  0
  2  3  1  0
  2  8  1  0
  2  9  1  0
  3  4  1  0
  3 10  1  0
  3 11  1  0
  4  5  1  0
  4 12  1  0
  5 13  1  0
  5 14  1  0
M  END
> <intraLJ>
-0.383    

> <intraEL>
0.415     

> <intraDihe>
8.071     

> <interLJ>
0.000     

> <interEJ>
0.000     

> <gridLJ>
-2.021    

> <gridEL>
0.000     

> <totalE>
6.082     

> <LGFE>
-2.021  

> <LE>
-0.404  

> <SMILES>
C1CCNC1

> <atom.dprop.GFE>
-0.35 -0.4 -0.39 -0.5 -0.39 0 0 0 0 0 0 0 0 0

> <atom.prop.CLASS>
PRPC PRPC PRPC GEND PRPC NCLA NCLA NCLA NCLA NCLA NCLA NCLA NCLA NCLA

$$$$
