24_1
     RDKit          3D

 16 16  0  0  0  0  0  0  0  0999 V2000
  -13.6305   10.1151  -13.7980 N   0  0  0  0  0  0  0  0  0  0  0  0
  -14.6996    9.3646  -14.0568 C   0  0  0  0  0  0  0  0  0  0  0  0
  -15.8689    9.7887  -13.8537 N   0  0  0  0  0  0  0  0  0  0  0  0
  -17.0315    8.9574  -14.1803 C   0  0  0  0  0  0  0  0  0  0  0  0
  -16.6296    8.0706  -15.3676 C   0  0  0  0  0  0  0  0  0  0  0  0
  -15.4056    7.2278  -14.9910 C   0  0  0  0  0  0  0  0  0  0  0  0
  -14.3564    8.1493  -14.5439 N   0  0  0  0  0  0  0  0  0  0  0  0
  -13.9103   10.9118  -13.2175 H   0  0  0  0  0  0  0  0  0  0  0  0
  -12.8567    9.5569  -13.4309 H   0  0  0  0  0  0  0  0  0  0  0  0
  -17.8707    9.5936  -14.4619 H   0  0  0  0  0  0  0  0  0  0  0  0
  -17.3056    8.3461  -13.3190 H   0  0  0  0  0  0  0  0  0  0  0  0
  -16.3922    8.7011  -16.2269 H   0  0  0  0  0  0  0  0  0  0  0  0
  -17.4585    7.4139  -15.6275 H   0  0  0  0  0  0  0  0  0  0  0  0
  -15.0685    6.6505  -15.8539 H   0  0  0  0  0  0  0  0  0  0  0  0
  -15.6670    6.5487  -14.1766 H   0  0  0  0  0  0  0  0  0  0  0  0
  -13.5003    8.1925  -15.1069 H   0  0  0  0  0  0  0  0  0  0  0  0
  1  2  1  0
  1  8  1  0
  1  9  1  0
  2  3  2  0
  2  7  1  0
  3  4  1  0
  4  5  1  0
  4 10  1  0
  4 11  1  0
  5  6  1  0
  5 12  1  0
  5 13  1  0
  6  7  1  0
  6 14  1  0
  6 15  1  0
  7 16  1  0
M  END
> <intraLJ>
3.879     

> <intraEL>
-12.614   

> <intraDihe>
8.194     

> <interLJ>
0.000     

> <interEJ>
0.000     

> <gridLJ>
-3.612    

> <gridEL>
0.000     

> <totalE>
-4.152    

> <LGFE>
-3.612  

> <LE>
-0.516  

> <SMILES>
NC1=NCCCN1

> <atom.dprop.GFE>
-0.66 0 -0.88 -0.45 -0.46 -0.48 -0.67 0 0 0 0 0 0 0 0 0

> <atom.prop.CLASS>
GEND NCLA GENA PRPC PRPC PRPC GEND NCLA NCLA NCLA NCLA NCLA NCLA NCLA NCLA NCLA

$$$$
