23_2
     RDKit          3D

 10 10  0  0  0  0  0  0  0  0999 V2000
  -38.5249    8.9812   17.1765 O   0  0  0  0  0  0  0  0  0  0  0  0
  -37.7352    8.5709   16.2924 C   0  0  0  0  0  0  0  0  0  0  0  0
  -38.1376    7.5752   15.4490 N   0  0  0  0  0  0  0  0  0  0  0  0
  -37.3125    7.1490   14.5272 C   0  0  0  0  0  0  0  0  0  0  0  0
  -36.0436    7.6923   14.3984 C   0  0  0  0  0  0  0  0  0  0  0  0
  -35.6705    8.7007   15.2737 C   0  0  0  0  0  0  0  0  0  0  0  0
  -36.4924    9.1305   16.1968 N   0  0  0  0  0  0  0  0  0  0  0  0
  -37.6383    6.3772   13.8809 H   0  0  0  0  0  0  0  0  0  0  0  0
  -35.3783    7.3469   13.6544 H   0  0  0  0  0  0  0  0  0  0  0  0
  -34.7114    9.1435   15.2119 H   0  0  0  0  0  0  0  0  0  0  0  0
  1  2  1  0
  2  3  2  0
  2  7  1  0
  3  4  1  0
  4  5  2  0
  4  8  1  0
  5  6  1  0
  5  9  1  0
  6  7  2  0
  6 10  1  0
M  CHG  1   1  -1
M  END
> <intraLJ>
17.983    

> <intraEL>
-7.943    

> <intraDihe>
0.000     

> <interLJ>
0.000     

> <interEJ>
0.000     

> <gridLJ>
-2.100    

> <gridEL>
0.000     

> <totalE>
7.940     

> <LGFE>
-2.100  

> <LE>
-0.300  

> <SMILES>
[O-]c1ncccn1

> <atom.dprop.GFE>
0 -0.18 -0.67 -0.12 -0.18 -0.19 -0.77 0 0 0

> <atom.prop.CLASS>
NCLA GEHC GENA BENC BENC BENC GENA NCLA NCLA NCLA

$$$$
