31_1
     RDKit          3D

 15 15  0  0  0  0  0  0  0  0999 V2000
  -12.3250    0.2223   20.3319 O   0  0  0  0  0  0  0  0  0  0  0  0
  -13.2022    0.6689   21.0580 C   0  0  0  0  0  0  0  0  0  0  0  0
  -13.1457    2.1276   21.5859 C   0  0  0  0  0  0  0  0  0  0  0  0
  -14.4206    2.6577   22.1803 N   0  0  0  0  0  0  0  0  0  0  0  0
  -15.0888    1.5915   22.9728 C   0  0  0  0  0  0  0  0  0  0  0  0
  -15.4093    0.3752   22.0858 C   0  0  0  0  0  0  0  0  0  0  0  0
  -14.1870   -0.1330   21.4643 N   0  0  0  0  0  0  0  0  0  0  0  0
  -12.8271    2.7740   20.7673 H   0  0  0  0  0  0  0  0  0  0  0  0
  -12.3718    2.1549   22.3523 H   0  0  0  0  0  0  0  0  0  0  0  0
  -15.0332    2.9565   21.4307 H   0  0  0  0  0  0  0  0  0  0  0  0
  -16.0157    1.9775   23.4015 H   0  0  0  0  0  0  0  0  0  0  0  0
  -14.4379    1.2756   23.7911 H   0  0  0  0  0  0  0  0  0  0  0  0
  -16.1184    0.6737   21.3120 H   0  0  0  0  0  0  0  0  0  0  0  0
  -15.8637   -0.4043   22.6998 H   0  0  0  0  0  0  0  0  0  0  0  0
  -14.1456   -1.0818   21.1308 H   0  0  0  0  0  0  0  0  0  0  0  0
  1  2  2  0
  2  3  1  0
  2  7  1  0
  3  4  1  0
  3  8  1  0
  3  9  1  0
  4  5  1  0
  4 10  1  0
  5  6  1  0
  5 11  1  0
  5 12  1  0
  6  7  1  0
  6 13  1  0
  6 14  1  0
  7 15  1  0
M  END
> <intraLJ>
0.615     

> <intraEL>
3.232     

> <intraDihe>
15.833    

> <interLJ>
0.000     

> <interEJ>
0.000     

> <gridLJ>
-2.440    

> <gridEL>
0.000     

> <totalE>
17.240    

> <LGFE>
-2.440  

> <LE>
-0.349  

> <SMILES>
O=C1CNCCN1

> <atom.dprop.GFE>
-1 0 -0.06 -0.098 -0.31 -0.5 -0.43 0 0 0 0 0 0 0 0

> <atom.prop.CLASS>
GENA NCLA PRPC GEND PRPC PRPC GEND NCLA NCLA NCLA NCLA NCLA NCLA NCLA NCLA

$$$$
