58
     RDKit          3D

 12 12  0  0  0  0  0  0  0  0999 V2000
  -22.1618    3.1241   23.3262 O   0  0  0  0  0  0  0  0  0  0  0  0
  -22.9547    3.1516   22.4045 C   0  0  0  0  0  0  0  0  0  0  0  0
  -23.0218    2.2613   21.4091 N   0  0  0  0  0  0  0  0  0  0  0  0
  -23.9623    2.6712   20.3750 C   0  0  0  0  0  0  0  0  0  0  0  0
  -24.7956    3.7295   21.1237 C   0  0  0  0  0  0  0  0  0  0  0  0
  -23.9023    4.0766   22.2201 N   0  0  0  0  0  0  0  0  0  0  0  0
  -22.1888    1.6827   21.2483 H   0  0  0  0  0  0  0  0  0  0  0  0
  -24.5876    1.8436   20.0363 H   0  0  0  0  0  0  0  0  0  0  0  0
  -23.4306    3.1337   19.5426 H   0  0  0  0  0  0  0  0  0  0  0  0
  -25.7120    3.2796   21.5102 H   0  0  0  0  0  0  0  0  0  0  0  0
  -25.0128    4.5855   20.4830 H   0  0  0  0  0  0  0  0  0  0  0  0
  -24.1685    4.6354   23.0385 H   0  0  0  0  0  0  0  0  0  0  0  0
  1  2  2  0
  2  3  1  0
  2  6  1  0
  3  4  1  0
  3  7  1  0
  4  5  1  0
  4  8  1  0
  4  9  1  0
  5  6  1  0
  5 10  1  0
  5 11  1  0
  6 12  1  0
M  END
> <intraLJ>
-0.226    

> <intraEL>
-6.154    

> <intraDihe>
4.218     

> <interLJ>
0.000     

> <interEJ>
0.000     

> <gridLJ>
-4.910    

> <gridEL>
0.000     

> <totalE>
-7.071    

> <LGFE>
-4.910  

> <LE>
-0.818  

> <SMILES>
O=C1NCCN1

> <atom.dprop.GFE>
-1.9 -0.3 -1.1 -0.11 -0.17 -1.4 0 0 0 0 0 0

> <atom.prop.CLASS>
GENA GEHC GEND PRPC PRPC GEND NCLA NCLA NCLA NCLA NCLA NCLA

$$$$
