35_1
     RDKit          3D

 10 10  0  0  0  0  0  0  0  0999 V2000
  -23.2386    3.9620   21.9798 N   0  0  0  0  0  0  0  0  0  0  0  0
  -22.4756    2.9480   22.4609 C   0  0  0  0  0  0  0  0  0  0  0  0
  -23.0185    1.8195   22.9313 N   0  0  0  0  0  0  0  0  0  0  0  0
  -21.9816    1.1392   23.2718 C   0  0  0  0  0  0  0  0  0  0  0  0
  -20.8796    1.8455   22.9997 N   0  0  0  0  0  0  0  0  0  0  0  0
  -21.1956    3.0321   22.4571 N   0  0  0  0  0  0  0  0  0  0  0  0
  -22.6765    4.4754   21.2958 H   0  0  0  0  0  0  0  0  0  0  0  0
  -24.1009    3.5601   21.6007 H   0  0  0  0  0  0  0  0  0  0  0  0
  -21.9307    0.1717   23.7017 H   0  0  0  0  0  0  0  0  0  0  0  0
  -19.9119    1.5260   23.1793 H   0  0  0  0  0  0  0  0  0  0  0  0
  1  2  1  0
  1  7  1  0
  1  8  1  0
  2  3  1  0
  2  6  2  0
  3  4  2  0
  4  5  1  0
  4  9  1  0
  5  6  1  0
  5 10  1  0
M  END
> <intraLJ>
0.124     

> <intraEL>
-9.860    

> <intraDihe>
2.848     

> <interLJ>
0.000     

> <interEJ>
0.000     

> <gridLJ>
-5.960    

> <gridEL>
0.000     

> <totalE>
-12.848   

> <LGFE>
-5.960  

> <LE>
-0.993  

> <SMILES>
Nc1nc[nH]n1

> <atom.dprop.GFE>
-1.4 -0.28 -1.4 -0.33 -0.91 -1.7 0 0 0 0

> <atom.prop.CLASS>
GEND GEHC GENA GEHC GEND GENA NCLA NCLA NCLA NCLA

$$$$
