2_1
     RDKit          3D

 15 15  0  0  0  0  0  0  0  0999 V2000
    8.2003   12.4215  -37.5138 C   0  0  0  0  0  0  0  0  0  0  0  0
    9.4947   13.1732  -37.1521 C   0  0  0  0  0  0  0  0  0  0  0  0
    9.8993   12.8853  -35.8126 O   0  0  0  0  0  0  0  0  0  0  0  0
    8.8844   13.2343  -34.8696 C   0  0  0  0  0  0  0  0  0  0  0  0
    7.5717   12.4844  -35.1649 C   0  0  0  0  0  0  0  0  0  0  0  0
    7.1056   12.7279  -36.5554 N   0  0  0  0  0  0  0  0  0  0  0  0
    8.4159   11.3512  -37.4971 H   0  0  0  0  0  0  0  0  0  0  0  0
    7.8961   12.6989  -38.5239 H   0  0  0  0  0  0  0  0  0  0  0  0
    9.3234   14.2448  -37.2614 H   0  0  0  0  0  0  0  0  0  0  0  0
   10.2874   12.8748  -37.8385 H   0  0  0  0  0  0  0  0  0  0  0  0
    8.6950   14.3076  -34.9134 H   0  0  0  0  0  0  0  0  0  0  0  0
    9.2237   12.9806  -33.8651 H   0  0  0  0  0  0  0  0  0  0  0  0
    6.8081   12.8082  -34.4566 H   0  0  0  0  0  0  0  0  0  0  0  0
    7.7512   11.4173  -35.0181 H   0  0  0  0  0  0  0  0  0  0  0  0
    6.2786   12.1795  -36.7616 H   0  0  0  0  0  0  0  0  0  0  0  0
  1  2  1  0
  1  6  1  0
  1  7  1  0
  1  8  1  0
  2  3  1  0
  2  9  1  0
  2 10  1  0
  3  4  1  0
  4  5  1  0
  4 11  1  0
  4 12  1  0
  5  6  1  0
  5 13  1  0
  5 14  1  0
  6 15  1  0
M  END
> <intraLJ>
0.516     

> <intraEL>
2.915     

> <intraDihe>
4.772     

> <interLJ>
0.000     

> <interEJ>
0.000     

> <gridLJ>
-3.537    

> <gridEL>
0.000     

> <totalE>
4.665     

> <LGFE>
-3.537  

> <LE>
-0.590  

> <SMILES>
C1COCCN1

> <atom.dprop.GFE>
-0.3 -0.31 -1.6 -0.32 -0.29 -0.75 0 0 0 0 0 0 0 0 0

> <atom.prop.CLASS>
PRPC PRPC GENA PRPC PRPC GEND NCLA NCLA NCLA NCLA NCLA NCLA NCLA NCLA NCLA

$$$$
