79
     RDKit          3D

 13 12  0  0  0  0  0  0  0  0999 V2000
  -16.2477   11.2096  -10.8978 C   0  0  0  0  0  0  0  0  0  0  0  0
  -17.2262   11.7164   -9.8413 C   0  0  0  0  0  0  0  0  0  0  0  0
  -17.4540   10.5794   -8.9820 O   0  0  0  0  0  0  0  0  0  0  0  0
  -16.7540   10.2706   -7.8772 C   0  0  0  0  0  0  0  0  0  0  0  0
  -15.8290   10.9512   -7.4908 O   0  0  0  0  0  0  0  0  0  0  0  0
  -17.1118    9.1705   -7.2000 N   0  0  0  0  0  0  0  0  0  0  0  0
  -16.0152   12.0101  -11.6000 H   0  0  0  0  0  0  0  0  0  0  0  0
  -16.6933   10.3725  -11.4378 H   0  0  0  0  0  0  0  0  0  0  0  0
  -15.3294   10.8732  -10.4156 H   0  0  0  0  0  0  0  0  0  0  0  0
  -18.1573   12.0323  -10.3146 H   0  0  0  0  0  0  0  0  0  0  0  0
  -16.7764   12.5372   -9.2790 H   0  0  0  0  0  0  0  0  0  0  0  0
  -16.5784    8.9432   -6.3547 H   0  0  0  0  0  0  0  0  0  0  0  0
  -17.8938    8.5929   -7.5135 H   0  0  0  0  0  0  0  0  0  0  0  0
  1  2  1  0
  1  7  1  0
  1  8  1  0
  1  9  1  0
  2  3  1  0
  2 10  1  0
  2 11  1  0
  3  4  1  0
  4  5  2  0
  4  6  1  0
  6 12  1  0
  6 13  1  0
M  END
> <intraLJ>
0.000     

> <intraEL>
-7.832    

> <intraDihe>
1.200     

> <interLJ>
0.000     

> <interEJ>
0.000     

> <gridLJ>
-2.607    

> <gridEL>
0.000     

> <totalE>
-9.239    

> <LGFE>
-2.607  

> <LE>
-0.435  

> <SMILES>
CCOC(N)=O

> <atom.dprop.GFE>
-0.15 -0.14 -0.36 0 -1.3 -0.62 0 0 0 0 0 0 0

> <atom.prop.CLASS>
PRPC PRPC GENA NCLA GENA GEND NCLA NCLA NCLA NCLA NCLA NCLA NCLA

$$$$
