71_2
     RDKit          3D

 19 19  0  0  0  0  0  0  0  0999 V2000
   10.2677   -5.5329  -10.9690 C   0  0  0  0  0  0  0  0  0  0  0  0
    9.5937   -4.4749  -10.0978 C   0  0  0  0  0  0  0  0  0  0  0  0
    8.2351   -4.8606   -9.6303 N   0  0  0  0  0  0  0  0  0  0  0  0
    7.3589   -5.5129  -10.6510 C   0  0  0  0  0  0  0  0  0  0  0  0
    7.5014   -4.9532  -12.0729 C   0  0  0  0  0  0  0  0  0  0  0  0
    8.5411   -5.6703  -12.7296 O   0  0  0  0  0  0  0  0  0  0  0  0
    9.8891   -5.3218  -12.4432 C   0  0  0  0  0  0  0  0  0  0  0  0
   10.0154   -6.5436  -10.6463 H   0  0  0  0  0  0  0  0  0  0  0  0
   11.3483   -5.4079  -10.8845 H   0  0  0  0  0  0  0  0  0  0  0  0
    9.5277   -3.5635  -10.7001 H   0  0  0  0  0  0  0  0  0  0  0  0
   10.2308   -4.2494   -9.2370 H   0  0  0  0  0  0  0  0  0  0  0  0
    7.7830   -4.0255   -9.2792 H   0  0  0  0  0  0  0  0  0  0  0  0
    8.3193   -5.5048   -8.8519 H   0  0  0  0  0  0  0  0  0  0  0  0
    6.3122   -5.4678  -10.3380 H   0  0  0  0  0  0  0  0  0  0  0  0
    7.6278   -6.5693  -10.7326 H   0  0  0  0  0  0  0  0  0  0  0  0
    7.6772   -3.8766  -12.0748 H   0  0  0  0  0  0  0  0  0  0  0  0
    6.5718   -5.1522  -12.6096 H   0  0  0  0  0  0  0  0  0  0  0  0
   10.5319   -5.9583  -13.0557 H   0  0  0  0  0  0  0  0  0  0  0  0
   10.0793   -4.2883  -12.7400 H   0  0  0  0  0  0  0  0  0  0  0  0
  1  2  1  0
  1  7  1  0
  1  8  1  0
  1  9  1  0
  2  3  1  0
  2 10  1  0
  2 11  1  0
  3  4  1  0
  3 12  1  0
  3 13  1  0
  4  5  1  0
  4 14  1  0
  4 15  1  0
  5  6  1  0
  5 16  1  0
  5 17  1  0
  6  7  1  0
  7 18  1  0
  7 19  1  0
M  CHG  1   3   1
M  END
> <intraLJ>
1.159     

> <intraEL>
4.103     

> <intraDihe>
11.900    

> <interLJ>
0.000     

> <interEJ>
0.000     

> <gridLJ>
-2.830    

> <gridEL>
0.000     

> <totalE>
14.332    

> <LGFE>
-2.830  

> <LE>
-0.404  

> <SMILES>
C1C[NH2+]CCOC1

> <atom.dprop.GFE>
-0.28 -0.14 -1.4 -0.13 -0.17 -0.39 -0.33 0 0 0 0 0 0 0 0 0 0 0 0

> <atom.prop.CLASS>
PRPC PRPC MAMN PRPC PRPC GENA PRPC NCLA NCLA NCLA NCLA NCLA NCLA NCLA NCLA NCLA NCLA NCLA NCLA

$$$$
