27_2
     RDKit          3D

 12 12  0  0  0  0  0  0  0  0999 V2000
   10.5576    3.7632   18.7670 N   0  0  0  0  0  0  0  0  0  0  0  0
   11.4704    4.1436   17.9053 C   0  0  0  0  0  0  0  0  0  0  0  0
   11.5959    5.3543   17.4121 N   0  0  0  0  0  0  0  0  0  0  0  0
   12.6680    5.3727   16.5378 C   0  0  0  0  0  0  0  0  0  0  0  0
   13.1783    4.1238   16.5273 C   0  0  0  0  0  0  0  0  0  0  0  0
   12.4047    3.3739   17.3961 N   0  0  0  0  0  0  0  0  0  0  0  0
   10.5335    2.7919   19.0997 H   0  0  0  0  0  0  0  0  0  0  0  0
    9.8628    4.4343   19.1139 H   0  0  0  0  0  0  0  0  0  0  0  0
   10.9756    6.1365   17.6630 H   0  0  0  0  0  0  0  0  0  0  0  0
   12.9734    6.2431   16.0098 H   0  0  0  0  0  0  0  0  0  0  0  0
   14.0021    3.7235   15.9889 H   0  0  0  0  0  0  0  0  0  0  0  0
   12.5101    2.3781   17.6316 H   0  0  0  0  0  0  0  0  0  0  0  0
  1  2  2  0
  1  7  1  0
  1  8  1  0
  2  3  1  0
  2  6  1  0
  3  4  1  0
  3  9  1  0
  4  5  2  0
  4 10  1  0
  5  6  1  0
  5 11  1  0
  6 12  1  0
M  CHG  1   1   1
M  END
> <intraLJ>
-0.384    

> <intraEL>
3.349     

> <intraDihe>
0.000     

> <interLJ>
0.000     

> <interEJ>
0.000     

> <gridLJ>
-2.613    

> <gridEL>
0.000     

> <totalE>
0.352     

> <LGFE>
-2.613  

> <LE>
-0.436  

> <SMILES>
[NH2+]=c1[nH]cc[nH]1

> <atom.dprop.GFE>
-1.4 -1.3 0 0.053 0.035 0 0 0 0 0 0 0

> <atom.prop.CLASS>
MAMN MAMC NCLA GEHC GEHC NCLA NCLA NCLA NCLA NCLA NCLA NCLA

$$$$
