35_1
     RDKit          3D

 10 10  0  0  0  0  0  0  0  0999 V2000
  -25.9881   -3.2200   30.6007 N   0  0  0  0  0  0  0  0  0  0  0  0
  -24.7191   -3.3756   31.0561 C   0  0  0  0  0  0  0  0  0  0  0  0
  -24.3369   -2.9099   32.2504 N   0  0  0  0  0  0  0  0  0  0  0  0
  -23.1006   -3.2610   32.2972 C   0  0  0  0  0  0  0  0  0  0  0  0
  -22.7828   -3.9136   31.1746 N   0  0  0  0  0  0  0  0  0  0  0  0
  -23.8443   -4.0018   30.3576 N   0  0  0  0  0  0  0  0  0  0  0  0
  -26.1810   -3.9876   29.9518 H   0  0  0  0  0  0  0  0  0  0  0  0
  -26.6150   -3.1841   31.4098 H   0  0  0  0  0  0  0  0  0  0  0  0
  -22.3895   -3.0965   33.0659 H   0  0  0  0  0  0  0  0  0  0  0  0
  -21.8478   -4.3015   30.9594 H   0  0  0  0  0  0  0  0  0  0  0  0
  1  2  1  0
  1  7  1  0
  1  8  1  0
  2  3  1  0
  2  6  2  0
  3  4  2  0
  4  5  1  0
  4  9  1  0
  5  6  1  0
  5 10  1  0
M  END
> <intraLJ>
0.124     

> <intraEL>
-9.860    

> <intraDihe>
2.848     

> <interLJ>
0.000     

> <interEJ>
0.000     

> <gridLJ>
-2.524    

> <gridEL>
0.000     

> <totalE>
-9.412    

> <LGFE>
-2.524  

> <LE>
-0.421  

> <SMILES>
Nc1nc[nH]n1

> <atom.dprop.GFE>
-0.46 -0.19 -0.67 -0.19 -0.37 -0.64 0 0 0 0

> <atom.prop.CLASS>
GEND GEHC GENA GEHC GEND GENA NCLA NCLA NCLA NCLA

$$$$
