80
     RDKit          3D

 16 16  0  0  0  0  0  0  0  0999 V2000
  -36.2982    6.7849   14.9732 N   0  0  0  0  0  0  0  0  0  0  0  0
  -36.1324    8.0262   14.4908 C   0  0  0  0  0  0  0  0  0  0  0  0
  -36.9725    8.8375   14.8068 O   0  0  0  0  0  0  0  0  0  0  0  0
  -34.9316    8.3170   13.6064 C   0  0  0  0  0  0  0  0  0  0  0  0
  -33.5702    8.1795   14.3435 C   0  0  0  0  0  0  0  0  0  0  0  0
  -33.1225    9.4442   13.5519 C   0  0  0  0  0  0  0  0  0  0  0  0
  -34.6270    9.8331   13.4496 C   0  0  0  0  0  0  0  0  0  0  0  0
  -37.1019    6.6213   15.5559 H   0  0  0  0  0  0  0  0  0  0  0  0
  -35.6447    6.0547   14.7583 H   0  0  0  0  0  0  0  0  0  0  0  0
  -34.9779    7.7797   12.6664 H   0  0  0  0  0  0  0  0  0  0  0  0
  -33.0208    7.2831   14.0914 H   0  0  0  0  0  0  0  0  0  0  0  0
  -33.6332    8.3620   15.4086 H   0  0  0  0  0  0  0  0  0  0  0  0
  -32.6895    9.2007   12.5894 H   0  0  0  0  0  0  0  0  0  0  0  0
  -32.5252   10.1373   14.1277 H   0  0  0  0  0  0  0  0  0  0  0  0
  -34.9546   10.4315   14.2897 H   0  0  0  0  0  0  0  0  0  0  0  0
  -34.9136   10.2439   12.4913 H   0  0  0  0  0  0  0  0  0  0  0  0
  1  2  1  0
  1  8  1  0
  1  9  1  0
  2  3  2  0
  2  4  1  0
  4  5  1  0
  4  7  1  0
  4 10  1  0
  5  6  1  0
  5 11  1  0
  5 12  1  0
  6  7  1  0
  6 13  1  0
  6 14  1  0
  7 15  1  0
  7 16  1  0
M  END
> <intraLJ>
0.058     

> <intraEL>
-0.841    

> <intraDihe>
21.653    

> <interLJ>
0.000     

> <interEJ>
0.000     

> <gridLJ>
-2.933    

> <gridEL>
0.000     

> <totalE>
17.937    

> <LGFE>
-2.933  

> <LE>
-0.419  

> <SMILES>
NC(=O)C1CCC1

> <atom.dprop.GFE>
-0.84 0 -0.79 -0.33 -0.34 -0.34 -0.3 0 0 0 0 0 0 0 0 0

> <atom.prop.CLASS>
GEND NCLA GENA PRPC PRPC PRPC PRPC NCLA NCLA NCLA NCLA NCLA NCLA NCLA NCLA NCLA

$$$$
