52_1
     RDKit          3D

 10 10  0  0  0  0  0  0  0  0999 V2000
  -29.1543   -5.2198    3.7434 C   0  0  0  0  0  0  0  0  0  0  0  0
  -27.6926   -5.1511    4.1206 C   0  0  0  0  0  0  0  0  0  0  0  0
  -27.0764   -4.2276    4.7575 N   0  0  0  0  0  0  0  0  0  0  0  0
  -25.7798   -4.6318    4.8436 N   0  0  0  0  0  0  0  0  0  0  0  0
  -25.6240   -5.7874    4.2625 N   0  0  0  0  0  0  0  0  0  0  0  0
  -26.8215   -6.0972    3.8186 N   0  0  0  0  0  0  0  0  0  0  0  0
  -29.6447   -4.3246    4.1282 H   0  0  0  0  0  0  0  0  0  0  0  0
  -29.5880   -6.1133    4.1925 H   0  0  0  0  0  0  0  0  0  0  0  0
  -29.2308   -5.2559    2.6566 H   0  0  0  0  0  0  0  0  0  0  0  0
  -27.0304   -6.9690    3.3047 H   0  0  0  0  0  0  0  0  0  0  0  0
  1  2  1  0
  1  7  1  0
  1  8  1  0
  1  9  1  0
  2  3  2  0
  2  6  1  0
  3  4  1  0
  4  5  2  0
  5  6  1  0
  6 10  1  0
M  END
> <intraLJ>
-0.215    

> <intraEL>
-1.684    

> <intraDihe>
1.140     

> <interLJ>
0.000     

> <interEJ>
0.000     

> <gridLJ>
-5.031    

> <gridEL>
0.000     

> <totalE>
-5.791    

> <LGFE>
-5.031  

> <LE>
-0.838  

> <SMILES>
Cc1nnn[nH]1

> <atom.dprop.GFE>
-0.27 -0.14 -1.3 -1.4 -0.98 -1 0 0 0 0

> <atom.prop.CLASS>
PRPC GEHC GENA GENA GENA GEND NCLA NCLA NCLA NCLA

$$$$
