35_3
     RDKit          3D

 10 10  0  0  0  0  0  0  0  0999 V2000
  -20.3405   -3.4879  -24.5373 N   0  0  0  0  0  0  0  0  0  0  0  0
  -19.6525   -4.6559  -24.2759 C   0  0  0  0  0  0  0  0  0  0  0  0
  -20.0692   -5.8291  -24.5801 N   0  0  0  0  0  0  0  0  0  0  0  0
  -19.0709   -6.6276  -24.1283 C   0  0  0  0  0  0  0  0  0  0  0  0
  -18.0736   -6.0129  -23.5690 N   0  0  0  0  0  0  0  0  0  0  0  0
  -18.4565   -4.7284  -23.6735 N   0  0  0  0  0  0  0  0  0  0  0  0
  -20.2316   -2.7310  -23.8512 H   0  0  0  0  0  0  0  0  0  0  0  0
  -21.3178   -3.6806  -24.8047 H   0  0  0  0  0  0  0  0  0  0  0  0
  -19.1001   -7.6857  -24.2243 H   0  0  0  0  0  0  0  0  0  0  0  0
  -17.9101   -3.9136  -23.3528 H   0  0  0  0  0  0  0  0  0  0  0  0
  1  2  1  0
  1  7  1  0
  1  8  1  0
  2  3  2  0
  2  6  1  0
  3  4  1  0
  4  5  2  0
  4  9  1  0
  5  6  1  0
  6 10  1  0
M  END
> <intraLJ>
-0.206    

> <intraEL>
-6.323    

> <intraDihe>
2.580     

> <interLJ>
0.000     

> <interEJ>
0.000     

> <gridLJ>
-2.061    

> <gridEL>
0.000     

> <totalE>
-6.010    

> <LGFE>
-2.061  

> <LE>
-0.344  

> <SMILES>
Nc1ncn[nH]1

> <atom.dprop.GFE>
-0.39 -0.12 -0.48 -0.12 -0.57 -0.37 0 0 0 0

> <atom.prop.CLASS>
GEND GEHC GENA GEHC GENA GEND NCLA NCLA NCLA NCLA

$$$$
