29_2
     RDKit          3D

 13 13  0  0  0  0  0  0  0  0999 V2000
   -6.6152  -18.9708    9.2447 N   0  0  0  0  0  0  0  0  0  0  0  0
   -6.7682  -19.8435    8.1753 C   0  0  0  0  0  0  0  0  0  0  0  0
   -5.8199  -20.4998    7.4674 C   0  0  0  0  0  0  0  0  0  0  0  0
   -6.5435  -21.4974    6.2457 S   0  0  0  0  0  0  0  0  0  0  0  0
   -8.0951  -20.9946    6.7620 C   0  0  0  0  0  0  0  0  0  0  0  0
   -9.2491  -21.4224    6.2155 N   0  0  0  0  0  0  0  0  0  0  0  0
   -8.0470  -20.1286    7.7743 N   0  0  0  0  0  0  0  0  0  0  0  0
   -7.2662  -18.1714    9.2704 H   0  0  0  0  0  0  0  0  0  0  0  0
   -5.6344  -18.6604    9.3639 H   0  0  0  0  0  0  0  0  0  0  0  0
   -4.7689  -20.4501    7.6010 H   0  0  0  0  0  0  0  0  0  0  0  0
  -10.1748  -21.1177    6.5491 H   0  0  0  0  0  0  0  0  0  0  0  0
   -9.2094  -22.1010    5.4351 H   0  0  0  0  0  0  0  0  0  0  0  0
   -8.8782  -19.7510    8.2390 H   0  0  0  0  0  0  0  0  0  0  0  0
  1  2  1  0
  1  8  1  0
  1  9  1  0
  2  3  2  0
  2  7  1  0
  3  4  1  0
  3 10  1  0
  4  5  1  0
  5  6  2  0
  5  7  1  0
  6 11  1  0
  6 12  1  0
  7 13  1  0
M  CHG  1   6   1
M  END
> <intraLJ>
-0.730    

> <intraEL>
-5.242    

> <intraDihe>
2.059     

> <interLJ>
0.000     

> <interEJ>
0.000     

> <gridLJ>
-2.959    

> <gridEL>
0.000     

> <totalE>
-6.872    

> <LGFE>
-2.959  

> <LE>
-0.423  

> <SMILES>
Nc1csc(=[NH2+])[nH]1

> <atom.dprop.GFE>
-0.42 -0.12 -0.1 -0.11 -1 -1.2 0 0 0 0 0 0 0

> <atom.prop.CLASS>
GEND GEHC GEHC PRPC MAMC MAMN NCLA NCLA NCLA NCLA NCLA NCLA NCLA

$$$$
