24_2
     RDKit          3D

 17 17  0  0  0  0  0  0  0  0999 V2000
   11.1492    7.9986  -46.3302 N   0  0  0  0  0  0  0  0  0  0  0  0
   11.8330    7.1354  -45.6595 C   0  0  0  0  0  0  0  0  0  0  0  0
   12.1498    7.4076  -44.4229 N   0  0  0  0  0  0  0  0  0  0  0  0
   12.9722    6.5236  -43.5863 C   0  0  0  0  0  0  0  0  0  0  0  0
   12.7171    5.0980  -44.0859 C   0  0  0  0  0  0  0  0  0  0  0  0
   13.0045    4.9934  -45.5868 C   0  0  0  0  0  0  0  0  0  0  0  0
   12.1767    6.0172  -46.2377 N   0  0  0  0  0  0  0  0  0  0  0  0
   10.8632    7.7904  -47.2910 H   0  0  0  0  0  0  0  0  0  0  0  0
   10.8416    8.8671  -45.8841 H   0  0  0  0  0  0  0  0  0  0  0  0
   11.8867    8.3276  -44.0587 H   0  0  0  0  0  0  0  0  0  0  0  0
   12.6796    6.6019  -42.5357 H   0  0  0  0  0  0  0  0  0  0  0  0
   14.0315    6.7738  -43.6859 H   0  0  0  0  0  0  0  0  0  0  0  0
   11.6803    4.8177  -43.8889 H   0  0  0  0  0  0  0  0  0  0  0  0
   13.3648    4.4066  -43.5459 H   0  0  0  0  0  0  0  0  0  0  0  0
   12.7376    3.9937  -45.9425 H   0  0  0  0  0  0  0  0  0  0  0  0
   14.0659    5.1738  -45.7805 H   0  0  0  0  0  0  0  0  0  0  0  0
   11.9322    5.8991  -47.2259 H   0  0  0  0  0  0  0  0  0  0  0  0
  1  2  2  0
  1  8  1  0
  1  9  1  0
  2  3  1  0
  2  7  1  0
  3  4  1  0
  3 10  1  0
  4  5  1  0
  4 11  1  0
  4 12  1  0
  5  6  1  0
  5 13  1  0
  5 14  1  0
  6  7  1  0
  6 15  1  0
  6 16  1  0
  7 17  1  0
M  CHG  1   1   1
M  END
> <intraLJ>
2.615     

> <intraEL>
-18.178   

> <intraDihe>
0.248     

> <interLJ>
0.000     

> <interEJ>
0.000     

> <gridLJ>
-2.174    

> <gridEL>
0.000     

> <totalE>
-17.489   

> <LGFE>
-2.174  

> <LE>
-0.311  

> <SMILES>
[NH2+]=C1NCCCN1

> <atom.dprop.GFE>
0 -1.3 0 -0.31 -0.33 -0.26 0 0 0 0 0 0 0 0 0 0 0

> <atom.prop.CLASS>
NCLA MAMC NCLA PRPC PRPC PRPC NCLA NCLA NCLA NCLA NCLA NCLA NCLA NCLA NCLA NCLA NCLA

$$$$
