27_2
     RDKit          3D

 12 12  0  0  0  0  0  0  0  0999 V2000
  -38.1129    8.0909   37.1714 N   0  0  0  0  0  0  0  0  0  0  0  0
  -37.5371    6.9315   37.3829 C   0  0  0  0  0  0  0  0  0  0  0  0
  -36.2715    6.6576   37.1646 N   0  0  0  0  0  0  0  0  0  0  0  0
  -36.0340    5.3375   37.5040 C   0  0  0  0  0  0  0  0  0  0  0  0
  -37.2091    4.8326   37.9333 C   0  0  0  0  0  0  0  0  0  0  0  0
  -38.1350    5.8576   37.8455 N   0  0  0  0  0  0  0  0  0  0  0  0
  -39.1126    8.2158   37.3706 H   0  0  0  0  0  0  0  0  0  0  0  0
  -37.5672    8.8799   36.8064 H   0  0  0  0  0  0  0  0  0  0  0  0
  -35.5968    7.3442   36.7999 H   0  0  0  0  0  0  0  0  0  0  0  0
  -35.0803    4.8767   37.4164 H   0  0  0  0  0  0  0  0  0  0  0  0
  -37.4511    3.8587   38.2822 H   0  0  0  0  0  0  0  0  0  0  0  0
  -39.1333    5.8255   38.0912 H   0  0  0  0  0  0  0  0  0  0  0  0
  1  2  2  0
  1  7  1  0
  1  8  1  0
  2  3  1  0
  2  6  1  0
  3  4  1  0
  3  9  1  0
  4  5  2  0
  4 10  1  0
  5  6  1  0
  5 11  1  0
  6 12  1  0
M  CHG  1   1   1
M  END
> <intraLJ>
-0.384    

> <intraEL>
3.349     

> <intraDihe>
0.000     

> <interLJ>
0.000     

> <interEJ>
0.000     

> <gridLJ>
-2.508    

> <gridEL>
0.000     

> <totalE>
0.457     

> <LGFE>
-2.508  

> <LE>
-0.418  

> <SMILES>
[NH2+]=c1[nH]cc[nH]1

> <atom.dprop.GFE>
-1.3 -1.3 0 0.048 0.014 0 0 0 0 0 0 0

> <atom.prop.CLASS>
MAMN MAMC NCLA GEHC GEHC NCLA NCLA NCLA NCLA NCLA NCLA NCLA

$$$$
