71_1
     RDKit          3D

 18 18  0  0  0  0  0  0  0  0999 V2000
   -2.3480   14.8945    0.3425 C   0  0  0  0  0  0  0  0  0  0  0  0
   -3.4837   14.1400   -0.3582 C   0  0  0  0  0  0  0  0  0  0  0  0
   -3.0171   13.1781   -1.3856 N   0  0  0  0  0  0  0  0  0  0  0  0
   -1.8077   13.5452   -2.1709 C   0  0  0  0  0  0  0  0  0  0  0  0
   -1.7578   15.0163   -2.6080 C   0  0  0  0  0  0  0  0  0  0  0  0
   -1.1196   15.8170   -1.6148 O   0  0  0  0  0  0  0  0  0  0  0  0
   -1.8964   16.1226   -0.4635 C   0  0  0  0  0  0  0  0  0  0  0  0
   -1.5052   14.2295    0.5316 H   0  0  0  0  0  0  0  0  0  0  0  0
   -2.7219   15.2469    1.3021 H   0  0  0  0  0  0  0  0  0  0  0  0
   -4.1484   14.8726   -0.8197 H   0  0  0  0  0  0  0  0  0  0  0  0
   -4.0653   13.5928    0.3871 H   0  0  0  0  0  0  0  0  0  0  0  0
   -3.7900   12.9373   -1.9928 H   0  0  0  0  0  0  0  0  0  0  0  0
   -1.7433   12.9028   -3.0501 H   0  0  0  0  0  0  0  0  0  0  0  0
   -0.9176   13.3563   -1.5683 H   0  0  0  0  0  0  0  0  0  0  0  0
   -2.7583   15.3849   -2.8372 H   0  0  0  0  0  0  0  0  0  0  0  0
   -1.1544   15.0744   -3.5137 H   0  0  0  0  0  0  0  0  0  0  0  0
   -1.2808   16.7455    0.1882 H   0  0  0  0  0  0  0  0  0  0  0  0
   -2.7673   16.7138   -0.7537 H   0  0  0  0  0  0  0  0  0  0  0  0
  1  2  1  0
  1  7  1  0
  1  8  1  0
  1  9  1  0
  2  3  1  0
  2 10  1  0
  2 11  1  0
  3  4  1  0
  3 12  1  0
  4  5  1  0
  4 13  1  0
  4 14  1  0
  5  6  1  0
  5 15  1  0
  5 16  1  0
  6  7  1  0
  7 17  1  0
  7 18  1  0
M  END
> <intraLJ>
0.655     

> <intraEL>
0.902     

> <intraDihe>
9.506     

> <interLJ>
0.000     

> <interEJ>
0.000     

> <gridLJ>
-5.010    

> <gridEL>
0.000     

> <totalE>
6.053     

> <LGFE>
-5.010  

> <LE>
-0.716  

> <SMILES>
C1CNCCOC1

> <atom.dprop.GFE>
-0.73 -0.66 -0.94 -0.58 -0.67 -0.87 -0.58 0 0 0 0 0 0 0 0 0 0 0

> <atom.prop.CLASS>
PRPC PRPC GEND PRPC PRPC GENA PRPC NCLA NCLA NCLA NCLA NCLA NCLA NCLA NCLA NCLA NCLA NCLA

$$$$
