10_1
     RDKit          3D

  8  7  0  0  0  0  0  0  0  0999 V2000
   -6.8162   11.3074   -7.7179 O   0  0  0  0  0  0  0  0  0  0  0  0
   -6.0819   10.3548   -8.5306 P   0  0  0  0  0  0  0  0  0  0  0  0
   -7.0047    9.3774   -9.2204 O   0  0  0  0  0  0  0  0  0  0  0  0
   -5.2769   11.0398   -9.6100 O   0  0  0  0  0  0  0  0  0  0  0  0
   -5.1135    9.5417   -7.7047 O   0  0  0  0  0  0  0  0  0  0  0  0
   -7.8996    9.6144   -8.9579 H   0  0  0  0  0  0  0  0  0  0  0  0
   -5.4366   11.9851   -9.5121 H   0  0  0  0  0  0  0  0  0  0  0  0
   -5.2030    9.8484   -6.7963 H   0  0  0  0  0  0  0  0  0  0  0  0
  1  2  2  0
  2  3  1  0
  2  4  1  0
  2  5  1  0
  3  6  1  0
  4  7  1  0
  5  8  1  0
M  END
> <intraLJ>
-0.194    

> <intraEL>
-23.203   

> <intraDihe>
5.381     

> <interLJ>
0.000     

> <interEJ>
0.000     

> <gridLJ>
-3.519    

> <gridEL>
0.000     

> <totalE>
-21.535   

> <LGFE>
-3.519  

> <LE>
-0.704  

> <SMILES>
O=P(O)(O)O

> <atom.dprop.GFE>
-0.86 0 -0.84 -0.89 -0.94 0 0 0

> <atom.prop.CLASS>
GENA NCLA MEOO MEOO MEOO NCLA NCLA NCLA

$$$$
