24_1
     RDKit          3D

 16 16  0  0  0  0  0  0  0  0999 V2000
   23.0037   13.8625   -3.1183 N   0  0  0  0  0  0  0  0  0  0  0  0
   22.0710   14.2226   -3.9979 C   0  0  0  0  0  0  0  0  0  0  0  0
   20.8534   14.2890   -3.6793 N   0  0  0  0  0  0  0  0  0  0  0  0
   19.8491   14.7229   -4.6553 C   0  0  0  0  0  0  0  0  0  0  0  0
   20.5457   15.7033   -5.6099 C   0  0  0  0  0  0  0  0  0  0  0  0
   21.7391   15.0119   -6.2792 C   0  0  0  0  0  0  0  0  0  0  0  0
   22.6017   14.4918   -5.2136 N   0  0  0  0  0  0  0  0  0  0  0  0
   22.5516   13.4413   -2.3009 H   0  0  0  0  0  0  0  0  0  0  0  0
   23.7353   13.2964   -3.5536 H   0  0  0  0  0  0  0  0  0  0  0  0
   19.0306   15.2267   -4.1410 H   0  0  0  0  0  0  0  0  0  0  0  0
   19.4650   13.8605   -5.2024 H   0  0  0  0  0  0  0  0  0  0  0  0
   20.8919   16.5727   -5.0474 H   0  0  0  0  0  0  0  0  0  0  0  0
   19.8402   16.0315   -6.3719 H   0  0  0  0  0  0  0  0  0  0  0  0
   22.2837   15.7240   -6.9018 H   0  0  0  0  0  0  0  0  0  0  0  0
   21.3821   14.1849   -6.8967 H   0  0  0  0  0  0  0  0  0  0  0  0
   23.5440   14.8892   -5.1383 H   0  0  0  0  0  0  0  0  0  0  0  0
  1  2  1  0
  1  8  1  0
  1  9  1  0
  2  3  2  0
  2  7  1  0
  3  4  1  0
  4  5  1  0
  4 10  1  0
  4 11  1  0
  5  6  1  0
  5 12  1  0
  5 13  1  0
  6  7  1  0
  6 14  1  0
  6 15  1  0
  7 16  1  0
M  END
> <intraLJ>
3.879     

> <intraEL>
-12.614   

> <intraDihe>
8.194     

> <interLJ>
0.000     

> <interEJ>
0.000     

> <gridLJ>
-3.682    

> <gridEL>
0.000     

> <totalE>
-4.223    

> <LGFE>
-3.682  

> <LE>
-0.526  

> <SMILES>
NC1=NCCCN1

> <atom.dprop.GFE>
-0.51 0 -1.1 -0.67 -0.62 -0.47 -0.36 0 0 0 0 0 0 0 0 0

> <atom.prop.CLASS>
GEND NCLA GENA PRPC PRPC PRPC GEND NCLA NCLA NCLA NCLA NCLA NCLA NCLA NCLA NCLA

$$$$
