48_2
     RDKit          3D

 18 17  0  0  1  0  0  0  0  0999 V2000
  -17.0814   -8.1377   26.4042 C   0  0  0  0  0  0  0  0  0  0  0  0
  -17.8073   -7.4612   27.5817 C   0  0  0  0  0  0  0  0  0  0  0  0
  -19.1836   -6.8793   27.2169 C   0  0  0  0  0  0  0  0  0  0  0  0
  -20.0761   -7.9725   26.7479 N   0  0  0  0  0  0  0  0  0  0  0  0
  -19.0554   -5.7561   26.1447 C   0  0  0  0  0  0  0  0  0  0  0  0
  -19.7486   -5.8223   25.1419 O   0  0  0  0  0  0  0  0  0  0  0  0
  -18.2396   -4.7222   26.3035 N   0  0  0  0  0  0  0  0  0  0  0  0
  -16.1675   -8.6117   26.7720 H   0  0  0  0  0  0  0  0  0  0  0  0
  -16.7936   -7.4120   25.6427 H   0  0  0  0  0  0  0  0  0  0  0  0
  -17.7081   -8.9130   25.9586 H   0  0  0  0  0  0  0  0  0  0  0  0
  -17.1726   -6.6718   27.9899 H   0  0  0  0  0  0  0  0  0  0  0  0
  -17.9439   -8.2080   28.3664 H   0  0  0  0  0  0  0  0  0  0  0  0
  -19.6065   -6.4243   28.1149 H   0  0  0  0  0  0  0  0  0  0  0  0
  -19.7383   -8.2654   25.8383 H   0  0  0  0  0  0  0  0  0  0  0  0
  -21.0040   -7.6037   26.5917 H   0  0  0  0  0  0  0  0  0  0  0  0
  -20.0839   -8.7426   27.3972 H   0  0  0  0  0  0  0  0  0  0  0  0
  -18.2292   -4.0401   25.5565 H   0  0  0  0  0  0  0  0  0  0  0  0
  -17.6386   -4.6053   27.1041 H   0  0  0  0  0  0  0  0  0  0  0  0
  1  2  1  0
  1  8  1  0
  1  9  1  0
  1 10  1  0
  2  3  1  0
  2 11  1  0
  2 12  1  0
  3  4  1  0
  3  5  1  0
  3 13  1  0
  4 14  1  0
  4 15  1  0
  4 16  1  0
  5  6  2  0
  5  7  1  0
  7 17  1  0
  7 18  1  0
M  CHG  1   4   1
M  END
> <intraLJ>
0.350     

> <intraEL>
1.541     

> <intraDihe>
0.676     

> <interLJ>
0.000     

> <interEJ>
0.000     

> <gridLJ>
-3.210    

> <gridEL>
0.000     

> <totalE>
-0.643    

> <LGFE>
-3.210  

> <LE>
-0.459  

> <SMILES>
CCC([NH3+])C(N)=O

> <atom.dprop.GFE>
-0.23 -0.22 -0.38 0.11 0 -1.5 -1 0 0 0 0 0 0 0 0 0 0 0

> <atom.prop.CLASS>
PRPC PRPC PRPC MAMN NCLA GENA GEND NCLA NCLA NCLA NCLA NCLA NCLA NCLA NCLA NCLA NCLA NCLA

$$$$
