36_2
     RDKit          3D

 14 14  0  0  0  0  0  0  0  0999 V2000
   15.8617   18.2251  -20.5361 N   0  0  0  0  0  0  0  0  0  0  0  0
   17.2037   17.6526  -20.6375 C   0  0  0  0  0  0  0  0  0  0  0  0
   16.9455   16.2835  -21.2390 C   0  0  0  0  0  0  0  0  0  0  0  0
   17.0123   15.0973  -20.6118 C   0  0  0  0  0  0  0  0  0  0  0  0
   16.7305   14.1532  -21.4899 O   0  0  0  0  0  0  0  0  0  0  0  0
   16.5004   14.7912  -22.6469 C   0  0  0  0  0  0  0  0  0  0  0  0
   16.6151   16.0735  -22.5510 N   0  0  0  0  0  0  0  0  0  0  0  0
   15.8928   19.2318  -20.5662 H   0  0  0  0  0  0  0  0  0  0  0  0
   15.4211   17.8647  -19.7036 H   0  0  0  0  0  0  0  0  0  0  0  0
   15.3704   17.8210  -21.3333 H   0  0  0  0  0  0  0  0  0  0  0  0
   17.6628   17.5459  -19.6619 H   0  0  0  0  0  0  0  0  0  0  0  0
   17.8051   18.2197  -21.3404 H   0  0  0  0  0  0  0  0  0  0  0  0
   17.2405   14.8478  -19.6048 H   0  0  0  0  0  0  0  0  0  0  0  0
   16.2538   14.2227  -23.5105 H   0  0  0  0  0  0  0  0  0  0  0  0
  1  2  1  0
  1  8  1  0
  1  9  1  0
  1 10  1  0
  2  3  1  0
  2 11  1  0
  2 12  1  0
  3  4  2  0
  3  7  1  0
  4  5  1  0
  4 13  1  0
  5  6  1  0
  6  7  2  0
  6 14  1  0
M  CHG  1   1   1
M  END
> <intraLJ>
0.663     

> <intraEL>
4.725     

> <intraDihe>
11.928    

> <interLJ>
0.000     

> <interEJ>
0.000     

> <gridLJ>
-2.036    

> <gridEL>
0.000     

> <totalE>
15.280    

> <LGFE>
-2.036  

> <LE>
-0.291  

> <SMILES>
[NH3+]Cc1cocn1

> <atom.dprop.GFE>
-0.68 -0.055 0.14 0.058 -0.9 0.31 -0.91 0 0 0 0 0 0 0

> <atom.prop.CLASS>
MAMN PRPC GEHC GEHC GENA GEHC GENA NCLA NCLA NCLA NCLA NCLA NCLA NCLA

$$$$
