50_1
     RDKit          3D

 12 11  0  0  1  0  0  0  0  0999 V2000
   13.6726    5.9817  -42.6493 C   0  0  0  0  0  0  0  0  0  0  0  0
   14.8354    5.2036  -43.2636 C   0  0  0  0  0  0  0  0  0  0  0  0
   15.6904    6.1837  -43.8743 N   0  0  0  0  0  0  0  0  0  0  0  0
   14.3164    4.3956  -44.3857 C   0  0  0  0  0  0  0  0  0  0  0  0
   13.8978    3.7439  -45.2918 C   0  0  0  0  0  0  0  0  0  0  0  0
   12.9744    5.2665  -42.2132 H   0  0  0  0  0  0  0  0  0  0  0  0
   13.1790    6.5738  -43.4216 H   0  0  0  0  0  0  0  0  0  0  0  0
   14.0777    6.6316  -41.8741 H   0  0  0  0  0  0  0  0  0  0  0  0
   15.3532    4.5957  -42.5310 H   0  0  0  0  0  0  0  0  0  0  0  0
   15.1256    6.6767  -44.5495 H   0  0  0  0  0  0  0  0  0  0  0  0
   16.3993    5.6782  -44.3839 H   0  0  0  0  0  0  0  0  0  0  0  0
   13.5339    3.1761  -46.0793 H   0  0  0  0  0  0  0  0  0  0  0  0
  1  2  1  0
  1  6  1  0
  1  7  1  0
  1  8  1  0
  2  3  1  0
  2  4  1  0
  2  9  1  0
  3 10  1  0
  3 11  1  0
  4  5  3  0
  5 12  1  0
M  END
> <intraLJ>
0.883     

> <intraEL>
-1.894    

> <intraDihe>
0.827     

> <interLJ>
0.000     

> <interEJ>
0.000     

> <gridLJ>
-2.091    

> <gridEL>
0.000     

> <totalE>
-2.275    

> <LGFE>
-2.091  

> <LE>
-0.418  

> <SMILES>
C#CC(C)N

> <atom.dprop.GFE>
-0.37 -0.33 -0.75 -0.33 -0.32 0 0 0 0 0 0 0

> <atom.prop.CLASS>
PRPC PRPC GEND PRPC PRPC NCLA NCLA NCLA NCLA NCLA NCLA NCLA

$$$$
