21_1
     RDKit          3D

 17 16  0  0  0  0  0  0  0  0999 V2000
   21.9142   10.7365    1.9876 C   0  0  0  0  0  0  0  0  0  0  0  0
   21.7471   11.8928    0.9803 C   0  0  0  0  0  0  0  0  0  0  0  0
   20.2429   12.0152    0.6408 C   0  0  0  0  0  0  0  0  0  0  0  0
   22.5566   11.5670   -0.2754 C   0  0  0  0  0  0  0  0  0  0  0  0
   23.4928   12.2926   -0.7352 N   0  0  0  0  0  0  0  0  0  0  0  0
   24.1983   11.8648   -1.8350 O   0  0  0  0  0  0  0  0  0  0  0  0
   22.1790   10.4334   -0.9677 N   0  0  0  0  0  0  0  0  0  0  0  0
   21.3272   10.9575    2.8796 H   0  0  0  0  0  0  0  0  0  0  0  0
   22.9694   10.6478    2.2476 H   0  0  0  0  0  0  0  0  0  0  0  0
   21.5656    9.8105    1.5242 H   0  0  0  0  0  0  0  0  0  0  0  0
   22.0941   12.8220    1.4118 H   0  0  0  0  0  0  0  0  0  0  0  0
   19.8796   11.0634    0.2483 H   0  0  0  0  0  0  0  0  0  0  0  0
   20.1248   12.7955   -0.1120 H   0  0  0  0  0  0  0  0  0  0  0  0
   19.6978   12.2828    1.5465 H   0  0  0  0  0  0  0  0  0  0  0  0
   24.0740   10.8930   -1.8773 H   0  0  0  0  0  0  0  0  0  0  0  0
   22.2214   10.5928   -1.9824 H   0  0  0  0  0  0  0  0  0  0  0  0
   21.2785   10.0523   -0.6538 H   0  0  0  0  0  0  0  0  0  0  0  0
  1  2  1  0
  1  8  1  0
  1  9  1  0
  1 10  1  0
  2  3  1  0
  2  4  1  0
  2 11  1  0
  3 12  1  0
  3 13  1  0
  3 14  1  0
  4  5  2  0
  4  7  1  0
  5  6  1  0
  6 15  1  0
  7 16  1  0
  7 17  1  0
M  END
> <intraLJ>
7.547     

> <intraEL>
0.137     

> <intraDihe>
5.064     

> <interLJ>
0.000     

> <interEJ>
0.000     

> <gridLJ>
-2.559    

> <gridEL>
0.000     

> <totalE>
10.189    

> <LGFE>
-2.559  

> <LE>
-0.366  

> <SMILES>
CC(C)C(N)=NO

> <atom.dprop.GFE>
-0.29 -0.29 -0.24 0 -0.69 -0.51 -0.52 0 0 0 0 0 0 0 0 0 0

> <atom.prop.CLASS>
PRPC PRPC PRPC NCLA GENA MEOO GEND NCLA NCLA NCLA NCLA NCLA NCLA NCLA NCLA NCLA NCLA

$$$$
