24_2
     RDKit          3D

 17 17  0  0  0  0  0  0  0  0999 V2000
  -14.6467    7.8781   21.6267 N   0  0  0  0  0  0  0  0  0  0  0  0
  -14.0262    7.8854   20.4965 C   0  0  0  0  0  0  0  0  0  0  0  0
  -12.9368    8.5951   20.3817 N   0  0  0  0  0  0  0  0  0  0  0  0
  -12.1828    8.7205   19.1273 C   0  0  0  0  0  0  0  0  0  0  0  0
  -12.4132    7.4181   18.3543 C   0  0  0  0  0  0  0  0  0  0  0  0
  -13.9115    7.1606   18.1669 C   0  0  0  0  0  0  0  0  0  0  0  0
  -14.5042    7.1767   19.5106 N   0  0  0  0  0  0  0  0  0  0  0  0
  -15.4851    7.3027   21.7469 H   0  0  0  0  0  0  0  0  0  0  0  0
  -14.2696    8.4010   22.4219 H   0  0  0  0  0  0  0  0  0  0  0  0
  -12.6555    9.1634   21.1855 H   0  0  0  0  0  0  0  0  0  0  0  0
  -11.1150    8.8440   19.3277 H   0  0  0  0  0  0  0  0  0  0  0  0
  -12.5419    9.5729   18.5449 H   0  0  0  0  0  0  0  0  0  0  0  0
  -11.9607    6.5835   18.8938 H   0  0  0  0  0  0  0  0  0  0  0  0
  -11.9350    7.4907   17.3770 H   0  0  0  0  0  0  0  0  0  0  0  0
  -14.0594    6.1878   17.6884 H   0  0  0  0  0  0  0  0  0  0  0  0
  -14.3523    7.9414   17.5403 H   0  0  0  0  0  0  0  0  0  0  0  0
  -15.3904    6.6858   19.6649 H   0  0  0  0  0  0  0  0  0  0  0  0
  1  2  2  0
  1  8  1  0
  1  9  1  0
  2  3  1  0
  2  7  1  0
  3  4  1  0
  3 10  1  0
  4  5  1  0
  4 11  1  0
  4 12  1  0
  5  6  1  0
  5 13  1  0
  5 14  1  0
  6  7  1  0
  6 15  1  0
  6 16  1  0
  7 17  1  0
M  CHG  1   1   1
M  END
> <intraLJ>
2.615     

> <intraEL>
-18.178   

> <intraDihe>
0.248     

> <interLJ>
0.000     

> <interEJ>
0.000     

> <gridLJ>
-2.173    

> <gridEL>
0.000     

> <totalE>
-17.488   

> <LGFE>
-2.173  

> <LE>
-0.310  

> <SMILES>
[NH2+]=C1NCCCN1

> <atom.dprop.GFE>
0 -1.9 0 0.022 -0.14 -0.14 0 0 0 0 0 0 0 0 0 0 0

> <atom.prop.CLASS>
NCLA MAMC NCLA PRPC PRPC PRPC NCLA NCLA NCLA NCLA NCLA NCLA NCLA NCLA NCLA NCLA NCLA

$$$$
