43
     RDKit          3D

 16 16  0  0  0  0  0  0  0  0999 V2000
   18.7638   -7.9467  -22.5996 O   0  0  0  0  0  0  0  0  0  0  0  0
   19.0040   -7.1493  -23.5981 B   0  0  0  0  0  0  0  0  0  0  0  0
   20.1906   -6.6182  -23.6074 O   0  0  0  0  0  0  0  0  0  0  0  0
   17.9199   -6.8669  -24.7607 C   0  0  0  0  0  0  0  0  0  0  0  0
   17.8859   -5.3849  -25.2254 C   0  0  0  0  0  0  0  0  0  0  0  0
   16.3369   -5.5331  -25.2764 C   0  0  0  0  0  0  0  0  0  0  0  0
   16.4771   -6.6667  -24.2188 C   0  0  0  0  0  0  0  0  0  0  0  0
   17.8828   -8.3599  -22.5862 H   0  0  0  0  0  0  0  0  0  0  0  0
   20.3882   -6.0263  -24.3543 H   0  0  0  0  0  0  0  0  0  0  0  0
   18.0030   -7.5893  -25.5637 H   0  0  0  0  0  0  0  0  0  0  0  0
   18.3472   -5.2120  -26.1874 H   0  0  0  0  0  0  0  0  0  0  0  0
   18.2094   -4.6929  -24.4585 H   0  0  0  0  0  0  0  0  0  0  0  0
   15.9850   -5.8977  -26.2333 H   0  0  0  0  0  0  0  0  0  0  0  0
   15.7990   -4.6633  -24.9227 H   0  0  0  0  0  0  0  0  0  0  0  0
   16.4542   -6.2899  -23.2038 H   0  0  0  0  0  0  0  0  0  0  0  0
   15.8220   -7.5103  -24.3833 H   0  0  0  0  0  0  0  0  0  0  0  0
  1  2  1  0
  1  8  1  0
  2  3  1  0
  2  4  1  0
  3  9  1  0
  4  5  1  0
  4  7  1  0
  4 10  1  0
  5  6  1  0
  5 11  1  0
  5 12  1  0
  6  7  1  0
  6 13  1  0
  6 14  1  0
  7 15  1  0
  7 16  1  0
M  END
> <intraLJ>
3.496     

> <intraEL>
0.177     

> <intraDihe>
30.179    

> <interLJ>
0.000     

> <interEJ>
0.000     

> <gridLJ>
-2.087    

> <gridEL>
0.000     

> <totalE>
31.764    

> <LGFE>
-2.087  

> <LE>
-0.298  

> <SMILES>
OB(O)C1CCC1

> <atom.dprop.GFE>
-0.32 0 -0.22 -0.36 -0.4 -0.43 -0.35 0 0 0 0 0 0 0 0 0

> <atom.prop.CLASS>
MEOO NCLA MEOO PRPC PRPC PRPC PRPC NCLA NCLA NCLA NCLA NCLA NCLA NCLA NCLA NCLA

$$$$
