43
     RDKit          3D

 16 16  0  0  0  0  0  0  0  0999 V2000
   -8.0560   12.1206   -4.5641 O   0  0  0  0  0  0  0  0  0  0  0  0
   -7.2231   11.7986   -5.5092 B   0  0  0  0  0  0  0  0  0  0  0  0
   -6.1268   11.2266   -5.1076 O   0  0  0  0  0  0  0  0  0  0  0  0
   -7.5426   12.0580   -7.0703 C   0  0  0  0  0  0  0  0  0  0  0  0
   -9.0182   11.7615   -7.4554 C   0  0  0  0  0  0  0  0  0  0  0  0
   -8.4534   11.1317   -8.7624 C   0  0  0  0  0  0  0  0  0  0  0  0
   -7.1289   10.8728   -7.9864 C   0  0  0  0  0  0  0  0  0  0  0  0
   -8.8859   12.5397   -4.8515 H   0  0  0  0  0  0  0  0  0  0  0  0
   -5.4978   10.9710   -5.8049 H   0  0  0  0  0  0  0  0  0  0  0  0
   -7.1781   13.0256   -7.3937 H   0  0  0  0  0  0  0  0  0  0  0  0
   -9.6206   12.6449   -7.6126 H   0  0  0  0  0  0  0  0  0  0  0  0
   -9.4846   11.0271   -6.8114 H   0  0  0  0  0  0  0  0  0  0  0  0
   -8.3353   11.8578   -9.5569 H   0  0  0  0  0  0  0  0  0  0  0  0
   -8.9654   10.2311   -9.0748 H   0  0  0  0  0  0  0  0  0  0  0  0
   -7.1307    9.9195   -7.4728 H   0  0  0  0  0  0  0  0  0  0  0  0
   -6.2337   11.0524   -8.5647 H   0  0  0  0  0  0  0  0  0  0  0  0
  1  2  1  0
  1  8  1  0
  2  3  1  0
  2  4  1  0
  3  9  1  0
  4  5  1  0
  4  7  1  0
  4 10  1  0
  5  6  1  0
  5 11  1  0
  5 12  1  0
  6  7  1  0
  6 13  1  0
  6 14  1  0
  7 15  1  0
  7 16  1  0
M  END
> <intraLJ>
3.517     

> <intraEL>
0.178     

> <intraDihe>
30.179    

> <interLJ>
0.000     

> <interEJ>
0.000     

> <gridLJ>
-3.620    

> <gridEL>
0.000     

> <totalE>
30.254    

> <LGFE>
-3.620  

> <LE>
-0.517  

> <SMILES>
OB(O)C1CCC1

> <atom.dprop.GFE>
-1.7 0 -1.1 -0.23 0.094 -0.29 -0.44 0 0 0 0 0 0 0 0 0

> <atom.prop.CLASS>
MEOO NCLA MEOO PRPC PRPC PRPC PRPC NCLA NCLA NCLA NCLA NCLA NCLA NCLA NCLA NCLA

$$$$
