64_2
     RDKit          3D

 15 15  0  0  0  0  0  0  0  0999 V2000
    6.1354   -3.9323   -6.7841 N   0  0  0  0  0  0  0  0  0  0  0  0
    5.3334   -4.7339   -5.8795 C   0  0  0  0  0  0  0  0  0  0  0  0
    4.0812   -3.9050   -5.7897 C   0  0  0  0  0  0  0  0  0  0  0  0
    3.8790   -2.8710   -4.8512 C   0  0  0  0  0  0  0  0  0  0  0  0
    2.6706   -2.2534   -4.9955 C   0  0  0  0  0  0  0  0  0  0  0  0
    1.7501   -2.9285   -6.2892 S   0  0  0  0  0  0  0  0  0  0  0  0
    3.0133   -4.0549   -6.6314 C   0  0  0  0  0  0  0  0  0  0  0  0
    7.0290   -4.3736   -6.9387 H   0  0  0  0  0  0  0  0  0  0  0  0
    6.2268   -3.0185   -6.3631 H   0  0  0  0  0  0  0  0  0  0  0  0
    5.6048   -3.8335   -7.6376 H   0  0  0  0  0  0  0  0  0  0  0  0
    5.7913   -4.8024   -4.8982 H   0  0  0  0  0  0  0  0  0  0  0  0
    5.0974   -5.6997   -6.3134 H   0  0  0  0  0  0  0  0  0  0  0  0
    4.5733   -2.5924   -4.0980 H   0  0  0  0  0  0  0  0  0  0  0  0
    2.2788   -1.4557   -4.4159 H   0  0  0  0  0  0  0  0  0  0  0  0
    2.8933   -4.7536   -7.4216 H   0  0  0  0  0  0  0  0  0  0  0  0
  1  2  1  0
  1  8  1  0
  1  9  1  0
  1 10  1  0
  2  3  1  0
  2 11  1  0
  2 12  1  0
  3  4  1  0
  3  7  2  0
  4  5  2  0
  4 13  1  0
  5  6  1  0
  5 14  1  0
  6  7  1  0
  7 15  1  0
M  CHG  1   1   1
M  END
> <intraLJ>
1.075     

> <intraEL>
2.881     

> <intraDihe>
9.749     

> <interLJ>
0.000     

> <interEJ>
0.000     

> <gridLJ>
-2.654    

> <gridEL>
0.000     

> <totalE>
11.052    

> <LGFE>
-2.654  

> <LE>
-0.379  

> <SMILES>
[NH3+]Cc1ccsc1

> <atom.dprop.GFE>
-1.6 -0.28 -0.058 0.022 -0.27 -0.48 -0.0047 0 0 0 0 0 0 0 0

> <atom.prop.CLASS>
MAMN PRPC GEHC GEHC GEHC PRPC GEHC NCLA NCLA NCLA NCLA NCLA NCLA NCLA NCLA

$$$$
