55
     RDKit          3D

  7  7  0  0  0  0  0  0  0  0999 V2000
   17.9391    3.8210  -49.6248 C   0  0  0  0  0  0  0  0  0  0  0  0
   18.1780    2.5865  -49.3950 N   0  0  0  0  0  0  0  0  0  0  0  0
   19.3932    2.5541  -48.7598 N   0  0  0  0  0  0  0  0  0  0  0  0
   19.7693    3.7728  -48.6679 C   0  0  0  0  0  0  0  0  0  0  0  0
   18.8987    4.5934  -49.1915 O   0  0  0  0  0  0  0  0  0  0  0  0
   17.0912    4.2440  -50.1028 H   0  0  0  0  0  0  0  0  0  0  0  0
   20.6612    4.1498  -48.2351 H   0  0  0  0  0  0  0  0  0  0  0  0
  1  2  2  0
  1  5  1  0
  1  6  1  0
  2  3  1  0
  3  4  2  0
  4  5  1  0
  4  7  1  0
M  END
> <intraLJ>
-0.193    

> <intraEL>
-0.061    

> <intraDihe>
0.000     

> <interLJ>
0.000     

> <interEJ>
0.000     

> <gridLJ>
-2.188    

> <gridEL>
0.000     

> <totalE>
-2.441    

> <LGFE>
-2.188  

> <LE>
-0.438  

> <SMILES>
c1nnco1

> <atom.dprop.GFE>
-0.21 -0.56 -0.61 -0.22 -0.58 0 0

> <atom.prop.CLASS>
GEHC GENA GENA GEHC GENA NCLA NCLA

$$$$
