46_1
     RDKit          3D

 14 14  0  0  0  0  0  0  0  0999 V2000
  -28.2344   -9.8852   25.8774 C   0  0  0  0  0  0  0  0  0  0  0  0
  -28.5192  -10.8665   24.7275 C   0  0  0  0  0  0  0  0  0  0  0  0
  -30.0269  -10.7673   24.5047 C   0  0  0  0  0  0  0  0  0  0  0  0
  -30.4100   -9.4491   25.0271 N   0  0  0  0  0  0  0  0  0  0  0  0
  -29.6067   -9.3320   26.2510 C   0  0  0  0  0  0  0  0  0  0  0  0
  -27.6030   -9.0731   25.5161 H   0  0  0  0  0  0  0  0  0  0  0  0
  -27.7695  -10.3823   26.7295 H   0  0  0  0  0  0  0  0  0  0  0  0
  -28.2341  -11.8867   24.9881 H   0  0  0  0  0  0  0  0  0  0  0  0
  -27.9951  -10.5398   23.8288 H   0  0  0  0  0  0  0  0  0  0  0  0
  -30.5197  -11.5508   25.0857 H   0  0  0  0  0  0  0  0  0  0  0  0
  -30.2862  -10.8760   23.4491 H   0  0  0  0  0  0  0  0  0  0  0  0
  -31.4053   -9.3544   25.1877 H   0  0  0  0  0  0  0  0  0  0  0  0
  -29.5437   -8.2979   26.5967 H   0  0  0  0  0  0  0  0  0  0  0  0
  -30.0381   -9.9571   27.0367 H   0  0  0  0  0  0  0  0  0  0  0  0
  1  2  1  0
  1  5  1  0
  1  6  1  0
  1  7  1  0
  2  3  1  0
  2  8  1  0
  2  9  1  0
  3  4  1  0
  3 10  1  0
  3 11  1  0
  4  5  1  0
  4 12  1  0
  5 13  1  0
  5 14  1  0
M  END
> <intraLJ>
-0.383    

> <intraEL>
0.415     

> <intraDihe>
8.071     

> <interLJ>
0.000     

> <interEJ>
0.000     

> <gridLJ>
-2.689    

> <gridEL>
0.000     

> <totalE>
5.413     

> <LGFE>
-2.689  

> <LE>
-0.538  

> <SMILES>
C1CCNC1

> <atom.dprop.GFE>
-0.47 -0.48 -0.52 -0.77 -0.45 0 0 0 0 0 0 0 0 0

> <atom.prop.CLASS>
PRPC PRPC PRPC GEND PRPC NCLA NCLA NCLA NCLA NCLA NCLA NCLA NCLA NCLA

$$$$
