70_2
     RDKit          3D

 12 12  0  0  0  0  0  0  0  0999 V2000
  -21.1533    4.8289    6.4704 N   0  0  0  0  0  0  0  0  0  0  0  0
  -21.8454    4.3515    5.3982 C   0  0  0  0  0  0  0  0  0  0  0  0
  -22.3458    4.9861    4.2997 C   0  0  0  0  0  0  0  0  0  0  0  0
  -22.9773    4.0437    3.4801 C   0  0  0  0  0  0  0  0  0  0  0  0
  -23.5777    4.1450    2.3826 O   0  0  0  0  0  0  0  0  0  0  0  0
  -22.8419    2.8435    4.1058 N   0  0  0  0  0  0  0  0  0  0  0  0
  -22.1084    3.0428    5.3457 N   0  0  0  0  0  0  0  0  0  0  0  0
  -21.2104    5.8440    6.6354 H   0  0  0  0  0  0  0  0  0  0  0  0
  -21.1514    4.2397    7.3134 H   0  0  0  0  0  0  0  0  0  0  0  0
  -22.2725    6.0164    4.0901 H   0  0  0  0  0  0  0  0  0  0  0  0
  -23.1961    1.9462    3.7366 H   0  0  0  0  0  0  0  0  0  0  0  0
  -21.8129    2.3042    6.0093 H   0  0  0  0  0  0  0  0  0  0  0  0
  1  2  1  0
  1  8  1  0
  1  9  1  0
  2  3  2  0
  2  7  1  0
  3  4  1  0
  3 10  1  0
  4  5  2  0
  4  6  1  0
  6  7  1  0
  6 11  1  0
  7 12  1  0
M  END
> <intraLJ>
-0.628    

> <intraEL>
-11.018   

> <intraDihe>
1.030     

> <interLJ>
0.000     

> <interEJ>
0.000     

> <gridLJ>
-5.115    

> <gridEL>
0.000     

> <totalE>
-15.731   

> <LGFE>
-5.115  

> <LE>
-0.731  

> <SMILES>
Nc1cc(=O)[nH][nH]1

> <atom.dprop.GFE>
-1 -0.21 -0.27 -0.32 -1.3 -1.1 -0.84 0 0 0 0 0

> <atom.prop.CLASS>
GEND GEHC GEHC GEHC GENA GEND GEND NCLA NCLA NCLA NCLA NCLA

$$$$
