70_1
     RDKit          3D

 12 12  0  0  0  0  0  0  0  0999 V2000
    6.1344   13.6345  -30.1634 N   0  0  0  0  0  0  0  0  0  0  0  0
    6.6877   14.8796  -30.5261 C   0  0  0  0  0  0  0  0  0  0  0  0
    7.4666   15.2021  -31.5839 C   0  0  0  0  0  0  0  0  0  0  0  0
    7.7175   16.5600  -31.4478 C   0  0  0  0  0  0  0  0  0  0  0  0
    8.4487   17.3453  -32.2478 O   0  0  0  0  0  0  0  0  0  0  0  0
    7.1676   17.1078  -30.4126 N   0  0  0  0  0  0  0  0  0  0  0  0
    6.5059   16.0397  -29.8295 N   0  0  0  0  0  0  0  0  0  0  0  0
    5.9783   13.4874  -29.1544 H   0  0  0  0  0  0  0  0  0  0  0  0
    6.5930   12.8272  -30.6185 H   0  0  0  0  0  0  0  0  0  0  0  0
    7.8086   14.5618  -32.3518 H   0  0  0  0  0  0  0  0  0  0  0  0
    8.3503   18.2017  -31.7905 H   0  0  0  0  0  0  0  0  0  0  0  0
    5.9315   16.1147  -28.9730 H   0  0  0  0  0  0  0  0  0  0  0  0
  1  2  1  0
  1  8  1  0
  1  9  1  0
  2  3  2  0
  2  7  1  0
  3  4  1  0
  3 10  1  0
  4  5  1  0
  4  6  2  0
  5 11  1  0
  6  7  1  0
  7 12  1  0
M  END
> <intraLJ>
-0.707    

> <intraEL>
-16.624   

> <intraDihe>
2.009     

> <interLJ>
0.000     

> <interEJ>
0.000     

> <gridLJ>
-2.048    

> <gridEL>
0.000     

> <totalE>
-17.370   

> <LGFE>
-2.048  

> <LE>
-0.293  

> <SMILES>
Nc1cc(O)n[nH]1

> <atom.dprop.GFE>
-0.49 -0.11 -0.22 -0.13 -0.2 -0.51 -0.38 0 0 0 0 0

> <atom.prop.CLASS>
GEND GEHC GEHC GEHC MEOO GENA GEND NCLA NCLA NCLA NCLA NCLA

$$$$
