42_1
     RDKit          3D

 17 16  0  0  1  0  0  0  0  0999 V2000
  -15.1626    3.1184   21.7621 C   0  0  0  0  0  0  0  0  0  0  0  0
  -15.4338    1.6993   21.9739 N   0  0  0  0  0  0  0  0  0  0  0  0
  -14.7176    0.7296   21.3896 C   0  0  0  0  0  0  0  0  0  0  0  0
  -13.7851    0.9962   20.6351 O   0  0  0  0  0  0  0  0  0  0  0  0
  -15.0931   -0.7516   21.7031 C   0  0  0  0  0  0  0  0  0  0  0  0
  -16.3231   -0.8320   22.6077 C   0  0  0  0  0  0  0  0  0  0  0  0
  -14.0083   -1.5292   22.3517 N   0  0  0  0  0  0  0  0  0  0  0  0
  -15.8621    3.7284   22.3353 H   0  0  0  0  0  0  0  0  0  0  0  0
  -15.2601    3.3603   20.7021 H   0  0  0  0  0  0  0  0  0  0  0  0
  -14.1429    3.3507   22.0780 H   0  0  0  0  0  0  0  0  0  0  0  0
  -16.1855    1.4423   22.5911 H   0  0  0  0  0  0  0  0  0  0  0  0
  -15.3578   -1.2152   20.7514 H   0  0  0  0  0  0  0  0  0  0  0  0
  -16.1047   -0.3545   23.5635 H   0  0  0  0  0  0  0  0  0  0  0  0
  -16.5789   -1.8780   22.7791 H   0  0  0  0  0  0  0  0  0  0  0  0
  -17.1663   -0.3279   22.1369 H   0  0  0  0  0  0  0  0  0  0  0  0
  -13.7718   -1.0489   23.2102 H   0  0  0  0  0  0  0  0  0  0  0  0
  -13.1825   -1.4692   21.7713 H   0  0  0  0  0  0  0  0  0  0  0  0
  1  2  1  0
  1  8  1  0
  1  9  1  0
  1 10  1  0
  2  3  1  0
  2 11  1  0
  3  4  2  0
  3  5  1  0
  5  6  1  0
  5  7  1  0
  5 12  1  0
  6 13  1  0
  6 14  1  0
  6 15  1  0
  7 16  1  0
  7 17  1  0
M  END
> <intraLJ>
0.645     

> <intraEL>
6.392     

> <intraDihe>
1.060     

> <interLJ>
0.000     

> <interEJ>
0.000     

> <gridLJ>
-2.866    

> <gridEL>
0.000     

> <totalE>
5.231     

> <LGFE>
-2.866  

> <LE>
-0.409  

> <SMILES>
CNC(=O)C(C)N

> <atom.dprop.GFE>
-0.14 -0.29 0 -0.95 -0.47 -0.52 -0.5 0 0 0 0 0 0 0 0 0 0

> <atom.prop.CLASS>
PRPC GEND NCLA GENA PRPC PRPC GEND NCLA NCLA NCLA NCLA NCLA NCLA NCLA NCLA NCLA NCLA

$$$$
