43
     RDKit          3D

 16 16  0  0  0  0  0  0  0  0999 V2000
   16.2526   12.6294  -47.5802 O   0  0  0  0  0  0  0  0  0  0  0  0
   17.0770   12.3621  -46.6109 B   0  0  0  0  0  0  0  0  0  0  0  0
   17.6954   11.2227  -46.7106 O   0  0  0  0  0  0  0  0  0  0  0  0
   17.3400   13.3861  -45.3908 C   0  0  0  0  0  0  0  0  0  0  0  0
   17.3930   14.8739  -45.8348 C   0  0  0  0  0  0  0  0  0  0  0  0
   18.5744   15.0343  -44.8337 C   0  0  0  0  0  0  0  0  0  0  0  0
   18.8408   13.5104  -45.0068 C   0  0  0  0  0  0  0  0  0  0  0  0
   15.7910   13.4842  -47.5240 H   0  0  0  0  0  0  0  0  0  0  0  0
   18.3232   11.0133  -45.9970 H   0  0  0  0  0  0  0  0  0  0  0  0
   16.6770   13.1878  -44.5573 H   0  0  0  0  0  0  0  0  0  0  0  0
   16.5119   15.4443  -45.5769 H   0  0  0  0  0  0  0  0  0  0  0  0
   17.7043   14.9979  -46.8641 H   0  0  0  0  0  0  0  0  0  0  0  0
   18.2420   15.2880  -43.8349 H   0  0  0  0  0  0  0  0  0  0  0  0
   19.3752   15.6663  -45.1944 H   0  0  0  0  0  0  0  0  0  0  0  0
   19.5085   13.2989  -45.8327 H   0  0  0  0  0  0  0  0  0  0  0  0
   19.1069   12.9999  -44.0921 H   0  0  0  0  0  0  0  0  0  0  0  0
  1  2  1  0
  1  8  1  0
  2  3  1  0
  2  4  1  0
  3  9  1  0
  4  5  1  0
  4  7  1  0
  4 10  1  0
  5  6  1  0
  5 11  1  0
  5 12  1  0
  6  7  1  0
  6 13  1  0
  6 14  1  0
  7 15  1  0
  7 16  1  0
M  END
> <intraLJ>
3.517     

> <intraEL>
0.178     

> <intraDihe>
30.178    

> <interLJ>
0.000     

> <interEJ>
0.000     

> <gridLJ>
-2.011    

> <gridEL>
0.000     

> <totalE>
31.863    

> <LGFE>
-2.011  

> <LE>
-0.287  

> <SMILES>
OB(O)C1CCC1

> <atom.dprop.GFE>
-0.49 0 -0.49 -0.28 -0.25 -0.24 -0.28 0 0 0 0 0 0 0 0 0

> <atom.prop.CLASS>
MEOO NCLA MEOO PRPC PRPC PRPC PRPC NCLA NCLA NCLA NCLA NCLA NCLA NCLA NCLA NCLA

$$$$
