8
     RDKit          3D

  9  9  0  0  0  0  0  0  0  0999 V2000
   20.6952   14.1702   -3.9559 N   0  0  0  0  0  0  0  0  0  0  0  0
   21.6209   13.7576   -3.4237 C   0  0  0  0  0  0  0  0  0  0  0  0
   22.7774   13.2135   -2.7544 C   0  0  0  0  0  0  0  0  0  0  0  0
   22.9798   11.8742   -2.4291 C   0  0  0  0  0  0  0  0  0  0  0  0
   24.1732   11.8223   -1.8224 C   0  0  0  0  0  0  0  0  0  0  0  0
   24.6624   13.0605   -1.7844 O   0  0  0  0  0  0  0  0  0  0  0  0
   23.8012   13.9082   -2.3580 N   0  0  0  0  0  0  0  0  0  0  0  0
   22.3290   11.0608   -2.6186 H   0  0  0  0  0  0  0  0  0  0  0  0
   24.7184   11.0092   -1.4131 H   0  0  0  0  0  0  0  0  0  0  0  0
  1  2  3  0
  2  3  1  0
  3  4  1  0
  3  7  2  0
  4  5  2  0
  4  8  1  0
  5  6  1  0
  5  9  1  0
  6  7  1  0
M  END
> <intraLJ>
-0.818    

> <intraEL>
1.724     

> <intraDihe>
0.000     

> <interLJ>
0.000     

> <interEJ>
0.000     

> <gridLJ>
-3.003    

> <gridEL>
0.000     

> <totalE>
-2.096    

> <LGFE>
-3.003  

> <LE>
-0.429  

> <SMILES>
N#Cc1ccon1

> <atom.dprop.GFE>
-1.1 0 -0.21 -0.2 -0.17 -0.66 -0.71 0 0

> <atom.prop.CLASS>
GENA NCLA GEHC GEHC GEHC GENA GENA NCLA NCLA

$$$$
