17_2
     RDKit          3D

 16 16  0  0  0  0  0  0  0  0999 V2000
  -36.4954    7.0073   14.9678 N   0  0  0  0  0  0  0  0  0  0  0  0
  -36.2754    8.3184   15.1782 C   0  0  0  0  0  0  0  0  0  0  0  0
  -36.9471    8.8559   16.0305 O   0  0  0  0  0  0  0  0  0  0  0  0
  -35.2321    9.1627   14.4084 C   0  0  0  0  0  0  0  0  0  0  0  0
  -35.7766    9.8662   13.2569 N   0  0  0  0  0  0  0  0  0  0  0  0
  -33.8276    8.6653   14.2830 C   0  0  0  0  0  0  0  0  0  0  0  0
  -34.1469    9.8607   15.1642 C   0  0  0  0  0  0  0  0  0  0  0  0
  -37.2032    6.5570   15.5294 H   0  0  0  0  0  0  0  0  0  0  0  0
  -35.9857    6.4761   14.2811 H   0  0  0  0  0  0  0  0  0  0  0  0
  -36.8167    9.5820   13.2621 H   0  0  0  0  0  0  0  0  0  0  0  0
  -35.2832    9.5090   12.3862 H   0  0  0  0  0  0  0  0  0  0  0  0
  -35.6590   10.9091   13.4179 H   0  0  0  0  0  0  0  0  0  0  0  0
  -33.2915    8.8777   13.3662 H   0  0  0  0  0  0  0  0  0  0  0  0
  -33.5827    7.7418   14.7937 H   0  0  0  0  0  0  0  0  0  0  0  0
  -34.1028    9.6957   16.2343 H   0  0  0  0  0  0  0  0  0  0  0  0
  -33.8110   10.8240   14.8014 H   0  0  0  0  0  0  0  0  0  0  0  0
  1  2  1  0
  1  8  1  0
  1  9  1  0
  2  3  2  0
  2  4  1  0
  4  5  1  0
  4  6  1  0
  4  7  1  0
  5 10  1  0
  5 11  1  0
  5 12  1  0
  6  7  1  0
  6 13  1  0
  6 14  1  0
  7 15  1  0
  7 16  1  0
M  CHG  1   5   1
M  END
> <intraLJ>
-0.440    

> <intraEL>
0.101     

> <intraDihe>
6.326     

> <interLJ>
0.000     

> <interEJ>
0.000     

> <gridLJ>
-3.120    

> <gridEL>
0.000     

> <totalE>
2.867     

> <LGFE>
-3.120  

> <LE>
-0.446  

> <SMILES>
NC(=O)C1([NH3+])CC1

> <atom.dprop.GFE>
-0.84 0 -0.77 -0.39 -0.39 -0.34 -0.39 0 0 0 0 0 0 0 0 0

> <atom.prop.CLASS>
GEND NCLA GENA PRPC MAMN PRPC PRPC NCLA NCLA NCLA NCLA NCLA NCLA NCLA NCLA NCLA

$$$$
