11_3
     RDKit          3D

 11 11  0  0  0  0  0  0  0  0999 V2000
   -5.1140   -6.3563    1.3565 O   0  0  0  0  0  0  0  0  0  0  0  0
   -5.1265   -7.1409    2.4296 C   0  0  0  0  0  0  0  0  0  0  0  0
   -4.1792   -8.2743    2.6117 C   0  0  0  0  0  0  0  0  0  0  0  0
   -4.6801   -8.7536    3.9812 C   0  0  0  0  0  0  0  0  0  0  0  0
   -5.7814   -7.8391    4.3023 O   0  0  0  0  0  0  0  0  0  0  0  0
   -5.9667   -6.9162    3.3222 N   0  0  0  0  0  0  0  0  0  0  0  0
   -5.8417   -5.7353    1.5539 H   0  0  0  0  0  0  0  0  0  0  0  0
   -3.1693   -7.8986    2.6736 H   0  0  0  0  0  0  0  0  0  0  0  0
   -4.3519   -9.0184    1.8483 H   0  0  0  0  0  0  0  0  0  0  0  0
   -3.8959   -8.6697    4.7338 H   0  0  0  0  0  0  0  0  0  0  0  0
   -5.0521   -9.7771    3.9234 H   0  0  0  0  0  0  0  0  0  0  0  0
  1  2  1  0
  1  7  1  0
  2  3  1  0
  2  6  2  0
  3  4  1  0
  3  8  1  0
  3  9  1  0
  4  5  1  0
  4 10  1  0
  4 11  1  0
  5  6  1  0
M  END
> <intraLJ>
-0.718    

> <intraEL>
-4.916    

> <intraDihe>
22.322    

> <interLJ>
0.000     

> <interEJ>
0.000     

> <gridLJ>
-3.718    

> <gridEL>
0.000     

> <totalE>
12.971    

> <LGFE>
-3.718  

> <LE>
-0.620  

> <SMILES>
OC1=NOCC1

> <atom.dprop.GFE>
-0.95 -0.18 -0.14 -0.13 -1.1 -1.3 0 0 0 0 0

> <atom.prop.CLASS>
MEOO GEHC PRPC PRPC GENA GENA NCLA NCLA NCLA NCLA NCLA

$$$$
