68_1
     RDKit          3D

 17 16  0  0  1  0  0  0  0  0999 V2000
  -15.6841    0.0266   23.8739 C   0  0  0  0  0  0  0  0  0  0  0  0
  -16.0823    0.5680   22.5061 C   0  0  0  0  0  0  0  0  0  0  0  0
  -17.5351    0.7872   22.5042 N   0  0  0  0  0  0  0  0  0  0  0  0
  -15.6613   -0.4088   21.4040 C   0  0  0  0  0  0  0  0  0  0  0  0
  -14.1519   -0.5715   21.3388 C   0  0  0  0  0  0  0  0  0  0  0  0
  -13.4215    0.3778   21.1164 O   0  0  0  0  0  0  0  0  0  0  0  0
  -13.6286   -1.7693   21.5184 N   0  0  0  0  0  0  0  0  0  0  0  0
  -14.6017   -0.0983   23.9240 H   0  0  0  0  0  0  0  0  0  0  0  0
  -16.1703   -0.9319   24.0579 H   0  0  0  0  0  0  0  0  0  0  0  0
  -15.9916    0.7346   24.6432 H   0  0  0  0  0  0  0  0  0  0  0  0
  -15.5701    1.5217   22.3459 H   0  0  0  0  0  0  0  0  0  0  0  0
  -18.0281   -0.0735   22.6898 H   0  0  0  0  0  0  0  0  0  0  0  0
  -17.8275    1.1927   21.6237 H   0  0  0  0  0  0  0  0  0  0  0  0
  -16.0390   -0.0701   20.4408 H   0  0  0  0  0  0  0  0  0  0  0  0
  -16.0858   -1.3892   21.6151 H   0  0  0  0  0  0  0  0  0  0  0  0
  -12.6252   -1.8323   21.4706 H   0  0  0  0  0  0  0  0  0  0  0  0
  -14.2116   -2.5646   21.7069 H   0  0  0  0  0  0  0  0  0  0  0  0
  1  2  1  0
  1  8  1  0
  1  9  1  0
  1 10  1  0
  2  3  1  0
  2  4  1  0
  2 11  1  0
  3 12  1  0
  3 13  1  0
  4  5  1  0
  4 14  1  0
  4 15  1  0
  5  6  2  0
  5  7  1  0
  7 16  1  0
  7 17  1  0
M  END
> <intraLJ>
1.699     

> <intraEL>
-12.197   

> <intraDihe>
0.839     

> <interLJ>
0.000     

> <interEJ>
0.000     

> <gridLJ>
-3.363    

> <gridEL>
0.000     

> <totalE>
-13.023   

> <LGFE>
-3.363  

> <LE>
-0.480  

> <SMILES>
CC(N)CC(N)=O

> <atom.dprop.GFE>
-0.34 -0.5 -0.61 -0.47 0 -0.95 -0.5 0 0 0 0 0 0 0 0 0 0

> <atom.prop.CLASS>
PRPC PRPC GEND PRPC NCLA GENA GEND NCLA NCLA NCLA NCLA NCLA NCLA NCLA NCLA NCLA NCLA

$$$$
