31_2
     RDKit          3D

 16 16  0  0  0  0  0  0  0  0999 V2000
   21.6329   -2.0672  -12.1871 O   0  0  0  0  0  0  0  0  0  0  0  0
   20.5184   -1.7852  -12.5834 C   0  0  0  0  0  0  0  0  0  0  0  0
   20.3110   -1.1381  -13.9794 C   0  0  0  0  0  0  0  0  0  0  0  0
   18.8961   -1.1758  -14.5016 N   0  0  0  0  0  0  0  0  0  0  0  0
   17.9311   -0.8704  -13.3997 C   0  0  0  0  0  0  0  0  0  0  0  0
   18.0740   -1.8878  -12.2455 C   0  0  0  0  0  0  0  0  0  0  0  0
   19.4627   -1.9525  -11.7835 N   0  0  0  0  0  0  0  0  0  0  0  0
   20.9897   -1.6319  -14.6778 H   0  0  0  0  0  0  0  0  0  0  0  0
   20.6398   -0.1012  -13.8851 H   0  0  0  0  0  0  0  0  0  0  0  0
   18.7118   -2.1083  -14.8534 H   0  0  0  0  0  0  0  0  0  0  0  0
   18.7932   -0.5169  -15.2647 H   0  0  0  0  0  0  0  0  0  0  0  0
   16.9033   -0.9012  -13.7695 H   0  0  0  0  0  0  0  0  0  0  0  0
   18.1208    0.1308  -13.0003 H   0  0  0  0  0  0  0  0  0  0  0  0
   17.7533   -2.8754  -12.5861 H   0  0  0  0  0  0  0  0  0  0  0  0
   17.4253   -1.5838  -11.4204 H   0  0  0  0  0  0  0  0  0  0  0  0
   19.6697   -2.3255  -10.8629 H   0  0  0  0  0  0  0  0  0  0  0  0
  1  2  2  0
  2  3  1  0
  2  7  1  0
  3  4  1  0
  3  8  1  0
  3  9  1  0
  4  5  1  0
  4 10  1  0
  4 11  1  0
  5  6  1  0
  5 12  1  0
  5 13  1  0
  6  7  1  0
  6 14  1  0
  6 15  1  0
  7 16  1  0
M  CHG  1   4   1
M  END
> <intraLJ>
0.159     

> <intraEL>
4.369     

> <intraDihe>
10.053    

> <interLJ>
0.000     

> <interEJ>
0.000     

> <gridLJ>
-2.714    

> <gridEL>
0.000     

> <totalE>
11.867    

> <LGFE>
-2.714  

> <LE>
-0.388  

> <SMILES>
O=C1C[NH2+]CCN1

> <atom.dprop.GFE>
-0.32 0 0.1 -1.4 -0.07 -0.21 -0.82 0 0 0 0 0 0 0 0 0

> <atom.prop.CLASS>
GENA NCLA PRPC MAMN PRPC PRPC GEND NCLA NCLA NCLA NCLA NCLA NCLA NCLA NCLA NCLA

$$$$
