47_1
     RDKit          3D

 10  9  0  0  0  0  0  0  0  0999 V2000
  -18.6016   -2.9640   26.3462 N   0  0  0  0  0  0  0  0  0  0  0  0
  -18.2493   -4.2524   25.6705 C   0  0  0  0  0  0  0  0  0  0  0  0
  -19.3551   -4.8454   24.7684 C   0  0  0  0  0  0  0  0  0  0  0  0
  -19.3011   -4.8275   23.5471 O   0  0  0  0  0  0  0  0  0  0  0  0
  -20.4356   -5.4530   25.2964 O   0  0  0  0  0  0  0  0  0  0  0  0
  -17.8925   -2.7016   27.0169 H   0  0  0  0  0  0  0  0  0  0  0  0
  -19.4983   -3.0548   26.8104 H   0  0  0  0  0  0  0  0  0  0  0  0
  -18.0194   -5.0007   26.4283 H   0  0  0  0  0  0  0  0  0  0  0  0
  -17.3603   -4.1057   25.0545 H   0  0  0  0  0  0  0  0  0  0  0  0
  -20.9534   -5.6948   24.5282 H   0  0  0  0  0  0  0  0  0  0  0  0
  1  2  1  0
  1  6  1  0
  1  7  1  0
  2  3  1  0
  2  8  1  0
  2  9  1  0
  3  4  2  0
  3  5  1  0
  5 10  1  0
M  END
> <intraLJ>
-0.289    

> <intraEL>
3.134     

> <intraDihe>
0.054     

> <interLJ>
0.000     

> <interEJ>
0.000     

> <gridLJ>
-3.667    

> <gridEL>
0.000     

> <totalE>
-0.767    

> <LGFE>
-3.667  

> <LE>
-0.733  

> <SMILES>
NCC(=O)O

> <atom.dprop.GFE>
-0.92 -0.2 0 -1.6 -0.92 0 0 0 0 0

> <atom.prop.CLASS>
GEND PRPC NCLA GENA MEOO NCLA NCLA NCLA NCLA NCLA

$$$$
