20_2
     RDKit          3D

 18 18  0  0  0  0  0  0  0  0999 V2000
   14.9349    6.6904   -2.9955 N   0  0  0  0  0  0  0  0  0  0  0  0
   16.0951    6.4969   -3.8728 C   0  0  0  0  0  0  0  0  0  0  0  0
   16.1544    7.5435   -4.9780 C   0  0  0  0  0  0  0  0  0  0  0  0
   17.0937    6.9202   -6.0141 C   0  0  0  0  0  0  0  0  0  0  0  0
   16.9615    5.4021   -5.8375 C   0  0  0  0  0  0  0  0  0  0  0  0
   16.0065    5.1941   -4.6569 C   0  0  0  0  0  0  0  0  0  0  0  0
   15.0046    7.5846   -2.5297 H   0  0  0  0  0  0  0  0  0  0  0  0
   14.9009    5.9526   -2.3064 H   0  0  0  0  0  0  0  0  0  0  0  0
   14.0921    6.6684   -3.5495 H   0  0  0  0  0  0  0  0  0  0  0  0
   17.0352    6.5155   -3.3123 H   0  0  0  0  0  0  0  0  0  0  0  0
   16.5457    8.4951   -4.6144 H   0  0  0  0  0  0  0  0  0  0  0  0
   15.1693    7.6844   -5.4278 H   0  0  0  0  0  0  0  0  0  0  0  0
   18.1255    7.2220   -5.8164 H   0  0  0  0  0  0  0  0  0  0  0  0
   16.8180    7.2264   -7.0267 H   0  0  0  0  0  0  0  0  0  0  0  0
   17.9412    4.9710   -5.6153 H   0  0  0  0  0  0  0  0  0  0  0  0
   16.5624    4.9364   -6.7424 H   0  0  0  0  0  0  0  0  0  0  0  0
   14.9953    5.0451   -5.0411 H   0  0  0  0  0  0  0  0  0  0  0  0
   16.3100    4.3386   -4.0519 H   0  0  0  0  0  0  0  0  0  0  0  0
  1  2  1  0
  1  7  1  0
  1  8  1  0
  1  9  1  0
  2  3  1  0
  2  6  1  0
  2 10  1  0
  3  4  1  0
  3 11  1  0
  3 12  1  0
  4  5  1  0
  4 13  1  0
  4 14  1  0
  5  6  1  0
  5 15  1  0
  5 16  1  0
  6 17  1  0
  6 18  1  0
M  CHG  1   1   1
M  END
> <intraLJ>
-0.090    

> <intraEL>
1.051     

> <intraDihe>
8.712     

> <interLJ>
0.000     

> <interEJ>
0.000     

> <gridLJ>
-3.611    

> <gridEL>
0.000     

> <totalE>
6.062     

> <LGFE>
-3.611  

> <LE>
-0.602  

> <SMILES>
[NH3+]C1CCCC1

> <atom.dprop.GFE>
-1.6 -0.38 -0.26 -0.56 -0.45 -0.38 0 0 0 0 0 0 0 0 0 0 0 0

> <atom.prop.CLASS>
MAMN PRPC PRPC PRPC PRPC PRPC NCLA NCLA NCLA NCLA NCLA NCLA NCLA NCLA NCLA NCLA NCLA NCLA

$$$$
