27_2
     RDKit          3D

 12 12  0  0  0  0  0  0  0  0999 V2000
    2.8314   -4.1517    7.4034 N   0  0  0  0  0  0  0  0  0  0  0  0
    4.1346   -4.2224    7.2721 C   0  0  0  0  0  0  0  0  0  0  0  0
    4.7923   -5.2150    6.7181 N   0  0  0  0  0  0  0  0  0  0  0  0
    6.1465   -4.9349    6.7626 C   0  0  0  0  0  0  0  0  0  0  0  0
    6.2722   -3.7350    7.3665 C   0  0  0  0  0  0  0  0  0  0  0  0
    4.9911   -3.3122    7.6755 N   0  0  0  0  0  0  0  0  0  0  0  0
    2.4006   -3.3346    7.8522 H   0  0  0  0  0  0  0  0  0  0  0  0
    2.2352   -4.9122    7.0577 H   0  0  0  0  0  0  0  0  0  0  0  0
    4.3354   -6.0492    6.3245 H   0  0  0  0  0  0  0  0  0  0  0  0
    6.8890   -5.5888    6.3745 H   0  0  0  0  0  0  0  0  0  0  0  0
    7.1420   -3.1684    7.5929 H   0  0  0  0  0  0  0  0  0  0  0  0
    4.7129   -2.4388    8.1421 H   0  0  0  0  0  0  0  0  0  0  0  0
  1  2  2  0
  1  7  1  0
  1  8  1  0
  2  3  1  0
  2  6  1  0
  3  4  1  0
  3  9  1  0
  4  5  2  0
  4 10  1  0
  5  6  1  0
  5 11  1  0
  6 12  1  0
M  CHG  1   1   1
M  END
> <intraLJ>
-0.384    

> <intraEL>
3.349     

> <intraDihe>
0.000     

> <interLJ>
0.000     

> <interEJ>
0.000     

> <gridLJ>
-3.042    

> <gridEL>
0.000     

> <totalE>
-0.077    

> <LGFE>
-3.042  

> <LE>
-0.507  

> <SMILES>
[NH2+]=c1[nH]cc[nH]1

> <atom.dprop.GFE>
-1.7 -1.2 0 -0.019 -0.028 0 0 0 0 0 0 0

> <atom.prop.CLASS>
MAMN MAMC NCLA GEHC GEHC NCLA NCLA NCLA NCLA NCLA NCLA NCLA

$$$$
