76_1
     RDKit          3D

 22 21  0  0  0  0  0  0  0  0999 V2000
    1.3383   -4.6268   -7.5401 C   0  0  0  0  0  0  0  0  0  0  0  0
    1.9035   -3.8596   -6.3381 C   0  0  0  0  0  0  0  0  0  0  0  0
    3.4383   -3.9080   -6.3974 C   0  0  0  0  0  0  0  0  0  0  0  0
    1.3426   -4.4670   -5.0382 C   0  0  0  0  0  0  0  0  0  0  0  0
    1.8634   -3.7751   -3.7671 C   0  0  0  0  0  0  0  0  0  0  0  0
    1.4766   -2.2977   -3.7529 C   0  0  0  0  0  0  0  0  0  0  0  0
    0.0087   -2.1687   -3.7776 N   0  0  0  0  0  0  0  0  0  0  0  0
    1.7012   -4.1846   -8.4679 H   0  0  0  0  0  0  0  0  0  0  0  0
    0.2479   -4.5745   -7.5361 H   0  0  0  0  0  0  0  0  0  0  0  0
    1.6448   -5.6730   -7.5000 H   0  0  0  0  0  0  0  0  0  0  0  0
    1.5812   -2.8177   -6.4101 H   0  0  0  0  0  0  0  0  0  0  0  0
    3.7880   -4.9330   -6.2663 H   0  0  0  0  0  0  0  0  0  0  0  0
    3.8680   -3.2783   -5.6191 H   0  0  0  0  0  0  0  0  0  0  0  0
    3.7840   -3.5342   -7.3627 H   0  0  0  0  0  0  0  0  0  0  0  0
    1.5940   -5.5292   -4.9988 H   0  0  0  0  0  0  0  0  0  0  0  0
    0.2553   -4.3771   -5.0567 H   0  0  0  0  0  0  0  0  0  0  0  0
    2.9514   -3.8518   -3.7280 H   0  0  0  0  0  0  0  0  0  0  0  0
    1.4441   -4.2535   -2.8833 H   0  0  0  0  0  0  0  0  0  0  0  0
    1.9110   -1.8014   -4.6240 H   0  0  0  0  0  0  0  0  0  0  0  0
    1.8704   -1.8298   -2.8479 H   0  0  0  0  0  0  0  0  0  0  0  0
   -0.3669   -2.6124   -4.6054 H   0  0  0  0  0  0  0  0  0  0  0  0
   -0.2614   -1.1949   -3.7645 H   0  0  0  0  0  0  0  0  0  0  0  0
  1  2  1  0
  1  8  1  0
  1  9  1  0
  1 10  1  0
  2  3  1  0
  2  4  1  0
  2 11  1  0
  3 12  1  0
  3 13  1  0
  3 14  1  0
  4  5  1  0
  4 15  1  0
  4 16  1  0
  5  6  1  0
  5 17  1  0
  5 18  1  0
  6  7  1  0
  6 19  1  0
  6 20  1  0
  7 21  1  0
  7 22  1  0
M  END
> <intraLJ>
1.715     

> <intraEL>
-0.778    

> <intraDihe>
0.081     

> <interLJ>
0.000     

> <interEJ>
0.000     

> <gridLJ>
-3.787    

> <gridEL>
0.000     

> <totalE>
-2.769    

> <LGFE>
-3.787  

> <LE>
-0.541  

> <SMILES>
CC(C)CCCN

> <atom.dprop.GFE>
-0.37 -0.48 -0.24 -0.44 -0.51 -0.58 -1.2 0 0 0 0 0 0 0 0 0 0 0 0 0 0 0

> <atom.prop.CLASS>
PRPC PRPC PRPC PRPC PRPC PRPC GEND NCLA NCLA NCLA NCLA NCLA NCLA NCLA NCLA NCLA NCLA NCLA NCLA NCLA NCLA NCLA

$$$$
