68_1
     RDKit          3D

 17 16  0  0  1  0  0  0  0  0999 V2000
    0.9222    8.9166  -25.4214 C   0  0  0  0  0  0  0  0  0  0  0  0
    1.4448    7.4899  -25.3039 C   0  0  0  0  0  0  0  0  0  0  0  0
    2.8837    7.5504  -25.0128 N   0  0  0  0  0  0  0  0  0  0  0  0
    1.1662    6.7133  -26.5944 C   0  0  0  0  0  0  0  0  0  0  0  0
    1.7782    7.3937  -27.8073 C   0  0  0  0  0  0  0  0  0  0  0  0
    2.9840    7.4168  -27.9794 O   0  0  0  0  0  0  0  0  0  0  0  0
    0.9828    7.9774  -28.6834 N   0  0  0  0  0  0  0  0  0  0  0  0
   -0.1559    8.9056  -25.5869 H   0  0  0  0  0  0  0  0  0  0  0  0
    1.4123    9.4326  -26.2475 H   0  0  0  0  0  0  0  0  0  0  0  0
    1.1295    9.4519  -24.4950 H   0  0  0  0  0  0  0  0  0  0  0  0
    0.9265    6.9956  -24.4766 H   0  0  0  0  0  0  0  0  0  0  0  0
    3.3778    8.0381  -25.7451 H   0  0  0  0  0  0  0  0  0  0  0  0
    3.2545    6.6175  -24.8810 H   0  0  0  0  0  0  0  0  0  0  0  0
    0.0930    6.5985  -26.7366 H   0  0  0  0  0  0  0  0  0  0  0  0
    1.6113    5.7223  -26.5175 H   0  0  0  0  0  0  0  0  0  0  0  0
    1.4287    8.4130  -29.4737 H   0  0  0  0  0  0  0  0  0  0  0  0
   -0.0138    7.9669  -28.5633 H   0  0  0  0  0  0  0  0  0  0  0  0
  1  2  1  0
  1  8  1  0
  1  9  1  0
  1 10  1  0
  2  3  1  0
  2  4  1  0
  2 11  1  0
  3 12  1  0
  3 13  1  0
  4  5  1  0
  4 14  1  0
  4 15  1  0
  5  6  2  0
  5  7  1  0
  7 16  1  0
  7 17  1  0
M  END
> <intraLJ>
3.430     

> <intraEL>
-12.594   

> <intraDihe>
2.993     

> <interLJ>
0.000     

> <interEJ>
0.000     

> <gridLJ>
-2.925    

> <gridEL>
0.000     

> <totalE>
-9.097    

> <LGFE>
-2.925  

> <LE>
-0.418  

> <SMILES>
CC(N)CC(N)=O

> <atom.dprop.GFE>
-0.22 -0.24 -0.61 -0.008 0 -1.3 -0.51 0 0 0 0 0 0 0 0 0 0

> <atom.prop.CLASS>
PRPC PRPC GEND PRPC NCLA GENA GEND NCLA NCLA NCLA NCLA NCLA NCLA NCLA NCLA NCLA NCLA

$$$$
