42_2
     RDKit          3D

 18 17  0  0  1  0  0  0  0  0999 V2000
  -15.0883   -6.9818   -6.7539 C   0  0  0  0  0  0  0  0  0  0  0  0
  -16.5266   -7.1609   -6.5512 N   0  0  0  0  0  0  0  0  0  0  0  0
  -17.1089   -8.3665   -6.5869 C   0  0  0  0  0  0  0  0  0  0  0  0
  -16.4693   -9.3894   -6.8137 O   0  0  0  0  0  0  0  0  0  0  0  0
  -18.6425   -8.5098   -6.3624 C   0  0  0  0  0  0  0  0  0  0  0  0
  -19.2215   -7.3001   -5.6271 C   0  0  0  0  0  0  0  0  0  0  0  0
  -18.9634   -9.7320   -5.5822 N   0  0  0  0  0  0  0  0  0  0  0  0
  -14.8271   -5.9225   -6.7176 H   0  0  0  0  0  0  0  0  0  0  0  0
  -14.7908   -7.3851   -7.7247 H   0  0  0  0  0  0  0  0  0  0  0  0
  -14.5312   -7.5096   -5.9761 H   0  0  0  0  0  0  0  0  0  0  0  0
  -17.0665   -6.3283   -6.3604 H   0  0  0  0  0  0  0  0  0  0  0  0
  -19.1124   -8.5700   -7.3470 H   0  0  0  0  0  0  0  0  0  0  0  0
  -18.7501   -7.1907   -4.6486 H   0  0  0  0  0  0  0  0  0  0  0  0
  -20.2997   -7.4086   -5.5040 H   0  0  0  0  0  0  0  0  0  0  0  0
  -19.0305   -6.3941   -6.2042 H   0  0  0  0  0  0  0  0  0  0  0  0
  -18.3807   -9.7121   -4.7527 H   0  0  0  0  0  0  0  0  0  0  0  0
  -18.6604  -10.5451   -6.1010 H   0  0  0  0  0  0  0  0  0  0  0  0
  -19.9408   -9.7843   -5.3420 H   0  0  0  0  0  0  0  0  0  0  0  0
  1  2  1  0
  1  8  1  0
  1  9  1  0
  1 10  1  0
  2  3  1  0
  2 11  1  0
  3  4  2  0
  3  5  1  0
  5  6  1  0
  5  7  1  0
  5 12  1  0
  6 13  1  0
  6 14  1  0
  6 15  1  0
  7 16  1  0
  7 17  1  0
  7 18  1  0
M  CHG  1   7   1
M  END
> <intraLJ>
0.129     

> <intraEL>
3.092     

> <intraDihe>
0.293     

> <interLJ>
0.000     

> <interEJ>
0.000     

> <gridLJ>
-3.551    

> <gridEL>
0.000     

> <totalE>
-0.038    

> <LGFE>
-3.551  

> <LE>
-0.507  

> <SMILES>
CNC(=O)C(C)[NH3+]

> <atom.dprop.GFE>
-0.089 -1.4 0 -0.42 0.066 -0.063 -1.7 0 0 0 0 0 0 0 0 0 0 0

> <atom.prop.CLASS>
PRPC GEND NCLA GENA PRPC PRPC MAMN NCLA NCLA NCLA NCLA NCLA NCLA NCLA NCLA NCLA NCLA NCLA

$$$$
