30_2
     RDKit          3D

 16 16  0  0  1  0  0  0  0  0999 V2000
    0.1911   -2.8396   11.2974 N   0  0  0  0  0  0  0  0  0  0  0  0
    0.9183   -2.3626   12.5047 C   0  0  0  0  0  0  0  0  0  0  0  0
    1.3646   -3.5162   13.4200 C   0  0  0  0  0  0  0  0  0  0  0  0
    1.2763   -2.8883   14.8258 C   0  0  0  0  0  0  0  0  0  0  0  0
    0.2191   -1.9049   14.6916 N   0  0  0  0  0  0  0  0  0  0  0  0
    0.0458   -1.5230   13.4431 C   0  0  0  0  0  0  0  0  0  0  0  0
   -0.8152   -0.7545   13.0429 O   0  0  0  0  0  0  0  0  0  0  0  0
    0.7981   -3.3387   10.6666 H   0  0  0  0  0  0  0  0  0  0  0  0
   -0.2093   -2.0246   10.8441 H   0  0  0  0  0  0  0  0  0  0  0  0
   -0.5871   -3.4160   11.5858 H   0  0  0  0  0  0  0  0  0  0  0  0
    1.7836   -1.7547   12.2304 H   0  0  0  0  0  0  0  0  0  0  0  0
    0.6605   -4.3477   13.3640 H   0  0  0  0  0  0  0  0  0  0  0  0
    2.3779   -3.8503   13.1951 H   0  0  0  0  0  0  0  0  0  0  0  0
    2.2166   -2.3962   15.0887 H   0  0  0  0  0  0  0  0  0  0  0  0
    1.0312   -3.6447   15.5769 H   0  0  0  0  0  0  0  0  0  0  0  0
   -0.2943   -1.4993   15.4649 H   0  0  0  0  0  0  0  0  0  0  0  0
  1  2  1  0
  1  8  1  0
  1  9  1  0
  1 10  1  0
  2  3  1  0
  2  6  1  0
  2 11  1  0
  3  4  1  0
  3 12  1  0
  3 13  1  0
  4  5  1  0
  4 14  1  0
  4 15  1  0
  5  6  1  0
  5 16  1  0
  6  7  2  0
M  CHG  1   1   1
M  END
> <intraLJ>
-0.328    

> <intraEL>
0.050     

> <intraDihe>
6.834     

> <interLJ>
0.000     

> <interEJ>
0.000     

> <gridLJ>
-2.123    

> <gridEL>
0.000     

> <totalE>
4.433     

> <LGFE>
-2.123  

> <LE>
-0.303  

> <SMILES>
[NH3+]C1CCNC1=O

> <atom.dprop.GFE>
-2.3 0.27 -0.0057 -0.069 -0.16 0.044 0.081 0 0 0 0 0 0 0 0 0

> <atom.prop.CLASS>
MAMN PRPC PRPC PRPC GEND GEHC GENA NCLA NCLA NCLA NCLA NCLA NCLA NCLA NCLA NCLA

$$$$
