54_1
     RDKit          3D

 11 10  0  0  0  0  0  0  0  0999 V2000
  -25.7264  -15.8738    8.1067 C   0  0  0  0  0  0  0  0  0  0  0  0
  -25.2031  -16.8583    9.1663 C   0  0  0  0  0  0  0  0  0  0  0  0
  -26.0452  -16.8608   10.4382 C   0  0  0  0  0  0  0  0  0  0  0  0
  -26.7372  -17.7880   10.8249 O   0  0  0  0  0  0  0  0  0  0  0  0
  -25.9884  -15.7313   11.1663 O   0  0  0  0  0  0  0  0  0  0  0  0
  -25.0855  -15.9061    7.2248 H   0  0  0  0  0  0  0  0  0  0  0  0
  -25.7265  -14.8612    8.5133 H   0  0  0  0  0  0  0  0  0  0  0  0
  -26.7448  -16.1453    7.8208 H   0  0  0  0  0  0  0  0  0  0  0  0
  -24.1835  -16.5864    9.4378 H   0  0  0  0  0  0  0  0  0  0  0  0
  -25.1935  -17.8645    8.7493 H   0  0  0  0  0  0  0  0  0  0  0  0
  -26.5547  -15.9083   11.9167 H   0  0  0  0  0  0  0  0  0  0  0  0
  1  2  1  0
  1  6  1  0
  1  7  1  0
  1  8  1  0
  2  3  1  0
  2  9  1  0
  2 10  1  0
  3  4  2  0
  3  5  1  0
  5 11  1  0
M  END
> <intraLJ>
-0.369    

> <intraEL>
-3.591    

> <intraDihe>
0.016     

> <interLJ>
0.000     

> <interEJ>
0.000     

> <gridLJ>
-2.135    

> <gridEL>
0.000     

> <totalE>
-6.080    

> <LGFE>
-2.135  

> <LE>
-0.427  

> <SMILES>
CCC(=O)O

> <atom.dprop.GFE>
-0.33 -0.23 0 -0.88 -0.69 0 0 0 0 0 0

> <atom.prop.CLASS>
PRPC PRPC NCLA GENA MEOO NCLA NCLA NCLA NCLA NCLA NCLA

$$$$
