61_2
     RDKit          3D

 17 17  0  0  0  0  0  0  0  0999 V2000
  -28.5883  -10.4175   24.8814 C   0  0  0  0  0  0  0  0  0  0  0  0
  -29.0918  -10.7788   26.2955 C   0  0  0  0  0  0  0  0  0  0  0  0
  -30.5811  -10.6989   26.3944 N   0  0  0  0  0  0  0  0  0  0  0  0
  -31.0484   -9.3360   25.9923 C   0  0  0  0  0  0  0  0  0  0  0  0
  -30.5669   -8.9576   24.5751 C   0  0  0  0  0  0  0  0  0  0  0  0
  -29.0910   -9.0858   24.4505 N   0  0  0  0  0  0  0  0  0  0  0  0
  -28.9231  -11.1839   24.1783 H   0  0  0  0  0  0  0  0  0  0  0  0
  -27.4955  -10.4134   24.8822 H   0  0  0  0  0  0  0  0  0  0  0  0
  -28.6389  -10.0707   26.9953 H   0  0  0  0  0  0  0  0  0  0  0  0
  -28.7410  -11.7823   26.5518 H   0  0  0  0  0  0  0  0  0  0  0  0
  -30.8785  -10.9040   27.3396 H   0  0  0  0  0  0  0  0  0  0  0  0
  -30.9851  -11.3787   25.7652 H   0  0  0  0  0  0  0  0  0  0  0  0
  -30.6469   -8.5921   26.6846 H   0  0  0  0  0  0  0  0  0  0  0  0
  -32.1392   -9.2773   26.0236 H   0  0  0  0  0  0  0  0  0  0  0  0
  -30.8637   -7.9274   24.3622 H   0  0  0  0  0  0  0  0  0  0  0  0
  -31.0563   -9.6094   23.8475 H   0  0  0  0  0  0  0  0  0  0  0  0
  -28.7693   -8.8479   23.5124 H   0  0  0  0  0  0  0  0  0  0  0  0
  1  2  1  0
  1  6  1  0
  1  7  1  0
  1  8  1  0
  2  3  1  0
  2  9  1  0
  2 10  1  0
  3  4  1  0
  3 11  1  0
  3 12  1  0
  4  5  1  0
  4 13  1  0
  4 14  1  0
  5  6  1  0
  5 15  1  0
  5 16  1  0
  6 17  1  0
M  CHG  1   3   1
M  END
> <intraLJ>
1.222     

> <intraEL>
7.977     

> <intraDihe>
5.373     

> <interLJ>
0.000     

> <interEJ>
0.000     

> <gridLJ>
-2.742    

> <gridEL>
0.000     

> <totalE>
11.830    

> <LGFE>
-2.742  

> <LE>
-0.457  

> <SMILES>
C1C[NH2+]CCN1

> <atom.dprop.GFE>
-0.48 -0.48 -0.28 -0.4 -0.42 -0.69 0 0 0 0 0 0 0 0 0 0 0

> <atom.prop.CLASS>
PRPC PRPC MAMN PRPC PRPC GEND NCLA NCLA NCLA NCLA NCLA NCLA NCLA NCLA NCLA NCLA NCLA

$$$$
