11_3
     RDKit          3D

 11 11  0  0  0  0  0  0  0  0999 V2000
    1.2099   -7.2162   -1.6648 O   0  0  0  0  0  0  0  0  0  0  0  0
    0.8801   -7.1461   -0.3789 C   0  0  0  0  0  0  0  0  0  0  0  0
   -0.4591   -7.5447    0.1337 C   0  0  0  0  0  0  0  0  0  0  0  0
   -0.2154   -7.2502    1.6203 C   0  0  0  0  0  0  0  0  0  0  0  0
    1.1637   -6.7518    1.6675 O   0  0  0  0  0  0  0  0  0  0  0  0
    1.7300   -6.7304    0.4323 N   0  0  0  0  0  0  0  0  0  0  0  0
    2.1306   -6.8902   -1.6536 H   0  0  0  0  0  0  0  0  0  0  0  0
   -0.6152   -8.5991   -0.0363 H   0  0  0  0  0  0  0  0  0  0  0  0
   -1.2146   -6.8912   -0.2770 H   0  0  0  0  0  0  0  0  0  0  0  0
   -0.3028   -8.1586    2.2167 H   0  0  0  0  0  0  0  0  0  0  0  0
   -0.9002   -6.4828    1.9827 H   0  0  0  0  0  0  0  0  0  0  0  0
  1  2  1  0
  1  7  1  0
  2  3  1  0
  2  6  2  0
  3  4  1  0
  3  8  1  0
  3  9  1  0
  4  5  1  0
  4 10  1  0
  4 11  1  0
  5  6  1  0
M  END
> <intraLJ>
-0.718    

> <intraEL>
-4.916    

> <intraDihe>
22.322    

> <interLJ>
0.000     

> <interEJ>
0.000     

> <gridLJ>
-2.621    

> <gridEL>
0.000     

> <totalE>
14.068    

> <LGFE>
-2.621  

> <LE>
-0.437  

> <SMILES>
OC1=NOCC1

> <atom.dprop.GFE>
-0.42 -0.068 -0.004 -0.12 -0.96 -1.1 0 0 0 0 0

> <atom.prop.CLASS>
MEOO GEHC PRPC PRPC GENA GENA NCLA NCLA NCLA NCLA NCLA

$$$$
