19_1
     RDKit          3D

 11 11  0  0  0  0  0  0  0  0999 V2000
  -20.9845    0.9074   22.8449 N   0  0  0  0  0  0  0  0  0  0  0  0
  -21.8511    1.7704   22.2155 C   0  0  0  0  0  0  0  0  0  0  0  0
  -22.0749    1.9181   20.8533 C   0  0  0  0  0  0  0  0  0  0  0  0
  -23.0260    2.8701   20.7384 C   0  0  0  0  0  0  0  0  0  0  0  0
  -23.3214    3.2394   22.0092 N   0  0  0  0  0  0  0  0  0  0  0  0
  -22.5889    2.5445   22.9401 N   0  0  0  0  0  0  0  0  0  0  0  0
  -21.2746    0.8708   23.8304 H   0  0  0  0  0  0  0  0  0  0  0  0
  -21.0213   -0.0155   22.3995 H   0  0  0  0  0  0  0  0  0  0  0  0
  -21.5911    1.3940   20.0715 H   0  0  0  0  0  0  0  0  0  0  0  0
  -23.4955    3.2999   19.8923 H   0  0  0  0  0  0  0  0  0  0  0  0
  -24.0188    3.9628   22.2657 H   0  0  0  0  0  0  0  0  0  0  0  0
  1  2  1  0
  1  7  1  0
  1  8  1  0
  2  3  1  0
  2  6  2  0
  3  4  2  0
  3  9  1  0
  4  5  1  0
  4 10  1  0
  5  6  1  0
  5 11  1  0
M  END
> <intraLJ>
-0.199    

> <intraEL>
-8.716    

> <intraDihe>
2.079     

> <interLJ>
0.000     

> <interEJ>
0.000     

> <gridLJ>
-4.768    

> <gridEL>
0.000     

> <totalE>
-11.603   

> <LGFE>
-4.768  

> <LE>
-0.795  

> <SMILES>
Nc1cc[nH]n1

> <atom.dprop.GFE>
-0.92 -0.41 -0.31 0.12 -1.4 -1.9 0 0 0 0 0

> <atom.prop.CLASS>
GEND GEHC GEHC GEHC GEND GENA NCLA NCLA NCLA NCLA NCLA

$$$$
