35_3
     RDKit          3D

 10 10  0  0  0  0  0  0  0  0999 V2000
   -2.8210    7.1031    9.5497 N   0  0  0  0  0  0  0  0  0  0  0  0
   -2.8752    5.9520   10.3100 C   0  0  0  0  0  0  0  0  0  0  0  0
   -3.9035    5.1932   10.4085 N   0  0  0  0  0  0  0  0  0  0  0  0
   -3.4762    4.2181   11.2480 C   0  0  0  0  0  0  0  0  0  0  0  0
   -2.2526    4.3367   11.6652 N   0  0  0  0  0  0  0  0  0  0  0  0
   -1.8653    5.4653   11.0460 N   0  0  0  0  0  0  0  0  0  0  0  0
   -2.2373    7.8649    9.9163 H   0  0  0  0  0  0  0  0  0  0  0  0
   -3.7623    7.3976    9.2481 H   0  0  0  0  0  0  0  0  0  0  0  0
   -4.0987    3.4098   11.5459 H   0  0  0  0  0  0  0  0  0  0  0  0
   -0.9278    5.8918   11.1115 H   0  0  0  0  0  0  0  0  0  0  0  0
  1  2  1  0
  1  7  1  0
  1  8  1  0
  2  3  2  0
  2  6  1  0
  3  4  1  0
  4  5  2  0
  4  9  1  0
  5  6  1  0
  6 10  1  0
M  END
> <intraLJ>
-0.206    

> <intraEL>
-6.323    

> <intraDihe>
2.580     

> <interLJ>
0.000     

> <interEJ>
0.000     

> <gridLJ>
-2.093    

> <gridEL>
0.000     

> <totalE>
-6.042    

> <LGFE>
-2.093  

> <LE>
-0.349  

> <SMILES>
Nc1ncn[nH]1

> <atom.dprop.GFE>
-0.53 -0.14 -0.56 -0.035 -0.51 -0.32 0 0 0 0

> <atom.prop.CLASS>
GEND GEHC GENA GEHC GENA GEND NCLA NCLA NCLA NCLA

$$$$
