46_1
     RDKit          3D

 14 14  0  0  0  0  0  0  0  0999 V2000
    0.6493   14.0075    9.1509 C   0  0  0  0  0  0  0  0  0  0  0  0
   -0.0979   12.9794   10.0175 C   0  0  0  0  0  0  0  0  0  0  0  0
   -1.0654   12.2971    9.0525 C   0  0  0  0  0  0  0  0  0  0  0  0
   -0.4781   12.4827    7.7191 N   0  0  0  0  0  0  0  0  0  0  0  0
    0.0225   13.8625    7.7671 C   0  0  0  0  0  0  0  0  0  0  0  0
    1.7057   13.7421    9.0993 H   0  0  0  0  0  0  0  0  0  0  0  0
    0.5272   15.0229    9.5295 H   0  0  0  0  0  0  0  0  0  0  0  0
   -0.6408   13.4585   10.8334 H   0  0  0  0  0  0  0  0  0  0  0  0
    0.6085   12.2454   10.4061 H   0  0  0  0  0  0  0  0  0  0  0  0
   -2.0304   12.8074    9.1038 H   0  0  0  0  0  0  0  0  0  0  0  0
   -1.1967   11.2399    9.2941 H   0  0  0  0  0  0  0  0  0  0  0  0
   -1.1335   12.3178    6.9650 H   0  0  0  0  0  0  0  0  0  0  0  0
    0.7474   14.0582    6.9740 H   0  0  0  0  0  0  0  0  0  0  0  0
   -0.8133   14.5614    7.6824 H   0  0  0  0  0  0  0  0  0  0  0  0
  1  2  1  0
  1  5  1  0
  1  6  1  0
  1  7  1  0
  2  3  1  0
  2  8  1  0
  2  9  1  0
  3  4  1  0
  3 10  1  0
  3 11  1  0
  4  5  1  0
  4 12  1  0
  5 13  1  0
  5 14  1  0
M  END
> <intraLJ>
-0.383    

> <intraEL>
0.415     

> <intraDihe>
8.071     

> <interLJ>
0.000     

> <interEJ>
0.000     

> <gridLJ>
-2.086    

> <gridEL>
0.000     

> <totalE>
6.017     

> <LGFE>
-2.086  

> <LE>
-0.417  

> <SMILES>
C1CCNC1

> <atom.dprop.GFE>
-0.33 -0.29 -0.37 -0.79 -0.32 0 0 0 0 0 0 0 0 0

> <atom.prop.CLASS>
PRPC PRPC PRPC GEND PRPC NCLA NCLA NCLA NCLA NCLA NCLA NCLA NCLA NCLA

$$$$
