60_1
     RDKit          3D

 13 13  0  0  0  0  0  0  0  0999 V2000
   20.9197   -3.2005  -10.6849 N   0  0  0  0  0  0  0  0  0  0  0  0
   19.9620   -3.4009  -11.6588 C   0  0  0  0  0  0  0  0  0  0  0  0
   19.9098   -4.5988  -12.3614 C   0  0  0  0  0  0  0  0  0  0  0  0
   18.9377   -4.7593  -13.3393 C   0  0  0  0  0  0  0  0  0  0  0  0
   18.0498   -3.7987  -13.6204 N   0  0  0  0  0  0  0  0  0  0  0  0
   18.0908   -2.6467  -12.9415 C   0  0  0  0  0  0  0  0  0  0  0  0
   19.0323   -2.4095  -11.9502 C   0  0  0  0  0  0  0  0  0  0  0  0
   21.1170   -2.2189  -10.4414 H   0  0  0  0  0  0  0  0  0  0  0  0
   21.7497   -3.8084  -10.7355 H   0  0  0  0  0  0  0  0  0  0  0  0
   20.5986   -5.3735  -12.1521 H   0  0  0  0  0  0  0  0  0  0  0  0
   18.8785   -5.6630  -13.8896 H   0  0  0  0  0  0  0  0  0  0  0  0
   17.3713   -1.9054  -13.1834 H   0  0  0  0  0  0  0  0  0  0  0  0
   19.0428   -1.4940  -11.4232 H   0  0  0  0  0  0  0  0  0  0  0  0
  1  2  1  0
  1  8  1  0
  1  9  1  0
  2  3  2  0
  2  7  1  0
  3  4  1  0
  3 10  1  0
  4  5  2  0
  4 11  1  0
  5  6  1  0
  6  7  2  0
  6 12  1  0
  7 13  1  0
M  END
> <intraLJ>
12.679    

> <intraEL>
-3.147    

> <intraDihe>
1.319     

> <interLJ>
0.000     

> <interEJ>
0.000     

> <gridLJ>
-2.193    

> <gridEL>
0.000     

> <totalE>
8.658     

> <LGFE>
-2.193  

> <LE>
-0.313  

> <SMILES>
Nc1ccncc1

> <atom.dprop.GFE>
-0.61 -0.18 -0.16 -0.13 -0.74 -0.23 -0.14 0 0 0 0 0 0

> <atom.prop.CLASS>
GEND BENC BENC GEHC GENA GEHC BENC NCLA NCLA NCLA NCLA NCLA NCLA

$$$$
