42_2
     RDKit          3D

 18 17  0  0  1  0  0  0  0  0999 V2000
   16.6479   -0.8891  -33.6153 C   0  0  0  0  0  0  0  0  0  0  0  0
   16.9512   -2.2000  -34.1909 N   0  0  0  0  0  0  0  0  0  0  0  0
   17.8562   -2.3609  -35.1649 C   0  0  0  0  0  0  0  0  0  0  0  0
   18.4681   -1.4113  -35.6454 O   0  0  0  0  0  0  0  0  0  0  0  0
   18.1491   -3.7754  -35.7451 C   0  0  0  0  0  0  0  0  0  0  0  0
   17.3418   -4.8585  -35.0280 C   0  0  0  0  0  0  0  0  0  0  0  0
   19.5907   -4.1159  -35.6393 N   0  0  0  0  0  0  0  0  0  0  0  0
   15.8620   -0.9757  -32.8625 H   0  0  0  0  0  0  0  0  0  0  0  0
   16.3136   -0.2021  -34.3963 H   0  0  0  0  0  0  0  0  0  0  0  0
   17.5411   -0.4694  -33.1464 H   0  0  0  0  0  0  0  0  0  0  0  0
   16.4577   -2.9922  -33.8037 H   0  0  0  0  0  0  0  0  0  0  0  0
   17.8513   -3.7651  -36.7964 H   0  0  0  0  0  0  0  0  0  0  0  0
   17.5916   -4.8757  -33.9655 H   0  0  0  0  0  0  0  0  0  0  0  0
   17.5415   -5.8368  -35.4670 H   0  0  0  0  0  0  0  0  0  0  0  0
   16.2758   -4.6479  -35.1274 H   0  0  0  0  0  0  0  0  0  0  0  0
   19.8607   -3.9531  -34.6757 H   0  0  0  0  0  0  0  0  0  0  0  0
   20.1280   -3.4536  -36.1821 H   0  0  0  0  0  0  0  0  0  0  0  0
   19.7783   -5.0665  -35.9167 H   0  0  0  0  0  0  0  0  0  0  0  0
  1  2  1  0
  1  8  1  0
  1  9  1  0
  1 10  1  0
  2  3  1  0
  2 11  1  0
  3  4  2  0
  3  5  1  0
  5  6  1  0
  5  7  1  0
  5 12  1  0
  6 13  1  0
  6 14  1  0
  6 15  1  0
  7 16  1  0
  7 17  1  0
  7 18  1  0
M  CHG  1   7   1
M  END
> <intraLJ>
-0.039    

> <intraEL>
3.322     

> <intraDihe>
0.350     

> <interLJ>
0.000     

> <interEJ>
0.000     

> <gridLJ>
-3.538    

> <gridEL>
0.000     

> <totalE>
0.095     

> <LGFE>
-3.538  

> <LE>
-0.505  

> <SMILES>
CNC(=O)C(C)[NH3+]

> <atom.dprop.GFE>
-0.49 -0.46 0 -1.4 -0.25 -0.0067 -0.96 0 0 0 0 0 0 0 0 0 0 0

> <atom.prop.CLASS>
PRPC GEND NCLA GENA PRPC PRPC MAMN NCLA NCLA NCLA NCLA NCLA NCLA NCLA NCLA NCLA NCLA NCLA

$$$$
