9_1
     RDKit          3D

 12 12  0  0  0  0  0  0  0  0999 V2000
   10.8722    9.6908    0.7993 O   0  0  0  0  0  0  0  0  0  0  0  0
   11.3232    8.3191    0.9981 C   0  0  0  0  0  0  0  0  0  0  0  0
   12.0344    8.0898    2.3623 C   0  0  0  0  0  0  0  0  0  0  0  0
   13.0792    7.3476    1.6135 N   0  0  0  0  0  0  0  0  0  0  0  0
   12.7029    8.0246    0.3444 C   0  0  0  0  0  0  0  0  0  0  0  0
   10.1254    9.8870    1.3869 H   0  0  0  0  0  0  0  0  0  0  0  0
   10.5556    7.5939    0.7664 H   0  0  0  0  0  0  0  0  0  0  0  0
   11.4712    7.4729    3.0481 H   0  0  0  0  0  0  0  0  0  0  0  0
   12.4072    9.0057    2.8013 H   0  0  0  0  0  0  0  0  0  0  0  0
   12.9234    6.3362    1.5916 H   0  0  0  0  0  0  0  0  0  0  0  0
   13.2819    8.9198    0.1615 H   0  0  0  0  0  0  0  0  0  0  0  0
   12.6483    7.3567   -0.5046 H   0  0  0  0  0  0  0  0  0  0  0  0
  1  2  1  0
  1  6  1  0
  2  3  1  0
  2  5  1  0
  2  7  1  0
  3  4  1  0
  3  8  1  0
  3  9  1  0
  4  5  1  0
  4 10  1  0
  5 11  1  0
  5 12  1  0
M  END
> <intraLJ>
0.433     

> <intraEL>
3.457     

> <intraDihe>
10.151    

> <interLJ>
0.000     

> <interEJ>
0.000     

> <gridLJ>
-2.170    

> <gridEL>
0.000     

> <totalE>
11.871    

> <LGFE>
-2.170  

> <LE>
-0.434  

> <SMILES>
OC1CNC1

> <atom.dprop.GFE>
-1.2 0.1 -0.032 -1.1 0.018 0 0 0 0 0 0 0

> <atom.prop.CLASS>
MEOO PRPC PRPC GEND PRPC NCLA NCLA NCLA NCLA NCLA NCLA NCLA

$$$$
