39_3
     RDKit          3D

 11 11  0  0  0  0  0  0  0  0999 V2000
    3.9031    0.4914  -38.4482 O   0  0  0  0  0  0  0  0  0  0  0  0
    2.9331   -0.1231  -37.7626 C   0  0  0  0  0  0  0  0  0  0  0  0
    1.9351   -0.8318  -38.4062 C   0  0  0  0  0  0  0  0  0  0  0  0
    0.9714   -1.4358  -37.6094 C   0  0  0  0  0  0  0  0  0  0  0  0
    1.0724   -1.2909  -36.2336 C   0  0  0  0  0  0  0  0  0  0  0  0
    2.0732   -0.5856  -35.6765 N   0  0  0  0  0  0  0  0  0  0  0  0
    3.0025   -0.0026  -36.4323 N   0  0  0  0  0  0  0  0  0  0  0  0
    4.4565    0.9028  -37.7573 H   0  0  0  0  0  0  0  0  0  0  0  0
    1.9162   -0.9029  -39.4613 H   0  0  0  0  0  0  0  0  0  0  0  0
    0.1794   -1.9925  -38.0388 H   0  0  0  0  0  0  0  0  0  0  0  0
    0.3601   -1.7347  -35.5861 H   0  0  0  0  0  0  0  0  0  0  0  0
  1  2  1  0
  1  8  1  0
  2  3  2  0
  2  7  1  0
  3  4  1  0
  3  9  1  0
  4  5  2  0
  4 10  1  0
  5  6  1  0
  5 11  1  0
  6  7  2  0
M  END
> <intraLJ>
16.308    

> <intraEL>
-0.658    

> <intraDihe>
0.000     

> <interLJ>
0.000     

> <interEJ>
0.000     

> <gridLJ>
-2.672    

> <gridEL>
0.000     

> <totalE>
12.978    

> <LGFE>
-2.672  

> <LE>
-0.382  

> <SMILES>
Oc1cccnn1

> <atom.dprop.GFE>
-0.96 -0.18 -0.17 -0.058 -0.069 -0.61 -0.62 0 0 0 0

> <atom.prop.CLASS>
MEOO BENC BENC BENC BENC GENA GENA NCLA NCLA NCLA NCLA

$$$$
