42_2
     RDKit          3D

 18 17  0  0  1  0  0  0  0  0999 V2000
   -3.4177   -8.9853    6.1537 C   0  0  0  0  0  0  0  0  0  0  0  0
   -2.3832   -7.9502    6.1406 N   0  0  0  0  0  0  0  0  0  0  0  0
   -2.2515   -7.0587    7.1314 C   0  0  0  0  0  0  0  0  0  0  0  0
   -3.0074   -7.0472    8.0985 O   0  0  0  0  0  0  0  0  0  0  0  0
   -1.1337   -5.9768    7.0769 C   0  0  0  0  0  0  0  0  0  0  0  0
   -0.0076   -6.3752    6.1217 C   0  0  0  0  0  0  0  0  0  0  0  0
   -0.5476   -5.7359    8.4200 N   0  0  0  0  0  0  0  0  0  0  0  0
   -3.3708   -9.5829    5.2412 H   0  0  0  0  0  0  0  0  0  0  0  0
   -4.4077   -8.5287    6.2254 H   0  0  0  0  0  0  0  0  0  0  0  0
   -3.2788   -9.6438    7.0144 H   0  0  0  0  0  0  0  0  0  0  0  0
   -1.7510   -7.9485    5.3524 H   0  0  0  0  0  0  0  0  0  0  0  0
   -1.5888   -5.0556    6.7054 H   0  0  0  0  0  0  0  0  0  0  0  0
    0.4503   -7.3116    6.4460 H   0  0  0  0  0  0  0  0  0  0  0  0
    0.7507   -5.5926    6.0783 H   0  0  0  0  0  0  0  0  0  0  0  0
   -0.4114   -6.5191    5.1183 H   0  0  0  0  0  0  0  0  0  0  0  0
   -0.2878   -6.6420    8.7937 H   0  0  0  0  0  0  0  0  0  0  0  0
   -1.2684   -5.3895    9.0385 H   0  0  0  0  0  0  0  0  0  0  0  0
    0.2446   -5.1140    8.3834 H   0  0  0  0  0  0  0  0  0  0  0  0
  1  2  1  0
  1  8  1  0
  1  9  1  0
  1 10  1  0
  2  3  1  0
  2 11  1  0
  3  4  2  0
  3  5  1  0
  5  6  1  0
  5  7  1  0
  5 12  1  0
  6 13  1  0
  6 14  1  0
  6 15  1  0
  7 16  1  0
  7 17  1  0
  7 18  1  0
M  CHG  1   7   1
M  END
> <intraLJ>
0.124     

> <intraEL>
3.098     

> <intraDihe>
0.292     

> <interLJ>
0.000     

> <interEJ>
0.000     

> <gridLJ>
-2.090    

> <gridEL>
0.000     

> <totalE>
1.424     

> <LGFE>
-2.090  

> <LE>
-0.299  

> <SMILES>
CNC(=O)C(C)[NH3+]

> <atom.dprop.GFE>
-0.06 -0.29 0 -0.2 0.14 -0.043 -1.6 0 0 0 0 0 0 0 0 0 0 0

> <atom.prop.CLASS>
PRPC GEND NCLA GENA PRPC PRPC MAMN NCLA NCLA NCLA NCLA NCLA NCLA NCLA NCLA NCLA NCLA NCLA

$$$$
