71_2
     RDKit          3D

 19 19  0  0  0  0  0  0  0  0999 V2000
    3.2355   10.0931  -26.4325 C   0  0  0  0  0  0  0  0  0  0  0  0
    1.9362    9.9663  -25.6400 C   0  0  0  0  0  0  0  0  0  0  0  0
    1.8248    8.6978  -24.8708 N   0  0  0  0  0  0  0  0  0  0  0  0
    2.2687    7.4635  -25.5881 C   0  0  0  0  0  0  0  0  0  0  0  0
    1.9304    7.4325  -27.0847 C   0  0  0  0  0  0  0  0  0  0  0  0
    3.0013    8.0460  -27.7942 O   0  0  0  0  0  0  0  0  0  0  0  0
    3.0675    9.4655  -27.8251 C   0  0  0  0  0  0  0  0  0  0  0  0
    4.0771    9.6427  -25.9049 H   0  0  0  0  0  0  0  0  0  0  0  0
    3.4491   11.1539  -26.5720 H   0  0  0  0  0  0  0  0  0  0  0  0
    1.1168   10.0284  -26.3628 H   0  0  0  0  0  0  0  0  0  0  0  0
    1.8361   10.8198  -24.9622 H   0  0  0  0  0  0  0  0  0  0  0  0
    0.8587    8.5956  -24.5861 H   0  0  0  0  0  0  0  0  0  0  0  0
    2.3799    8.7691  -24.0254 H   0  0  0  0  0  0  0  0  0  0  0  0
    1.8648    6.5732  -25.0983 H   0  0  0  0  0  0  0  0  0  0  0  0
    3.3586    7.3932  -25.5411 H   0  0  0  0  0  0  0  0  0  0  0  0
    0.9700    7.9036  -27.2985 H   0  0  0  0  0  0  0  0  0  0  0  0
    1.8803    6.3882  -27.3988 H   0  0  0  0  0  0  0  0  0  0  0  0
    3.9329    9.7426  -28.4315 H   0  0  0  0  0  0  0  0  0  0  0  0
    2.1823    9.8705  -28.3198 H   0  0  0  0  0  0  0  0  0  0  0  0
  1  2  1  0
  1  7  1  0
  1  8  1  0
  1  9  1  0
  2  3  1  0
  2 10  1  0
  2 11  1  0
  3  4  1  0
  3 12  1  0
  3 13  1  0
  4  5  1  0
  4 14  1  0
  4 15  1  0
  5  6  1  0
  5 16  1  0
  5 17  1  0
  6  7  1  0
  7 18  1  0
  7 19  1  0
M  CHG  1   3   1
M  END
> <intraLJ>
1.159     

> <intraEL>
4.103     

> <intraDihe>
11.900    

> <interLJ>
0.000     

> <interEJ>
0.000     

> <gridLJ>
-2.649    

> <gridEL>
0.000     

> <totalE>
14.513    

> <LGFE>
-2.649  

> <LE>
-0.378  

> <SMILES>
C1C[NH2+]CCOC1

> <atom.dprop.GFE>
-0.22 -0.25 -0.24 -0.29 -0.16 -1.3 -0.15 0 0 0 0 0 0 0 0 0 0 0 0

> <atom.prop.CLASS>
PRPC PRPC MAMN PRPC PRPC GENA PRPC NCLA NCLA NCLA NCLA NCLA NCLA NCLA NCLA NCLA NCLA NCLA NCLA

$$$$
