60_1
     RDKit          3D

 13 13  0  0  0  0  0  0  0  0999 V2000
   16.7219   16.2359   -5.6612 N   0  0  0  0  0  0  0  0  0  0  0  0
   18.0719   16.0514   -5.4393 C   0  0  0  0  0  0  0  0  0  0  0  0
   18.9579   17.1159   -5.5538 C   0  0  0  0  0  0  0  0  0  0  0  0
   20.3092   16.8888   -5.3314 C   0  0  0  0  0  0  0  0  0  0  0  0
   20.7806   15.6796   -5.0064 N   0  0  0  0  0  0  0  0  0  0  0  0
   19.9309   14.6531   -4.8872 C   0  0  0  0  0  0  0  0  0  0  0  0
   18.5666   14.7990   -5.0942 C   0  0  0  0  0  0  0  0  0  0  0  0
   16.1810   15.3872   -5.8827 H   0  0  0  0  0  0  0  0  0  0  0  0
   16.4639   17.0683   -6.2102 H   0  0  0  0  0  0  0  0  0  0  0  0
   18.6065   18.0812   -5.8046 H   0  0  0  0  0  0  0  0  0  0  0  0
   21.0047   17.6842   -5.4141 H   0  0  0  0  0  0  0  0  0  0  0  0
   20.3333   13.7073   -4.6243 H   0  0  0  0  0  0  0  0  0  0  0  0
   17.9133   13.9755   -4.9895 H   0  0  0  0  0  0  0  0  0  0  0  0
  1  2  1  0
  1  8  1  0
  1  9  1  0
  2  3  2  0
  2  7  1  0
  3  4  1  0
  3 10  1  0
  4  5  2  0
  4 11  1  0
  5  6  1  0
  6  7  2  0
  6 12  1  0
  7 13  1  0
M  END
> <intraLJ>
12.679    

> <intraEL>
-3.147    

> <intraDihe>
1.319     

> <interLJ>
0.000     

> <interEJ>
0.000     

> <gridLJ>
-2.731    

> <gridEL>
0.000     

> <totalE>
8.119     

> <LGFE>
-2.731  

> <LE>
-0.390  

> <SMILES>
Nc1ccncc1

> <atom.dprop.GFE>
-0.39 -0.3 -0.26 -0.13 -1.1 -0.28 -0.26 0 0 0 0 0 0

> <atom.prop.CLASS>
GEND BENC BENC GEHC GENA GEHC BENC NCLA NCLA NCLA NCLA NCLA NCLA

$$$$
