68_1
     RDKit          3D

 17 16  0  0  1  0  0  0  0  0999 V2000
   19.6301   14.5820   -5.2650 C   0  0  0  0  0  0  0  0  0  0  0  0
   21.1300   14.4805   -5.0147 C   0  0  0  0  0  0  0  0  0  0  0  0
   21.4079   15.0064   -3.6712 N   0  0  0  0  0  0  0  0  0  0  0  0
   21.9021   15.2518   -6.0893 C   0  0  0  0  0  0  0  0  0  0  0  0
   23.3965   14.9884   -6.0108 C   0  0  0  0  0  0  0  0  0  0  0  0
   23.8525   14.1451   -5.2591 O   0  0  0  0  0  0  0  0  0  0  0  0
   24.2124   15.6971   -6.7679 N   0  0  0  0  0  0  0  0  0  0  0  0
   19.3851   14.1511   -6.2366 H   0  0  0  0  0  0  0  0  0  0  0  0
   19.3114   15.6243   -5.2379 H   0  0  0  0  0  0  0  0  0  0  0  0
   19.0992   14.0277   -4.4914 H   0  0  0  0  0  0  0  0  0  0  0  0
   21.4208   13.4266   -5.0604 H   0  0  0  0  0  0  0  0  0  0  0  0
   21.1109   15.9676   -3.5935 H   0  0  0  0  0  0  0  0  0  0  0  0
   22.3920   14.9097   -3.4533 H   0  0  0  0  0  0  0  0  0  0  0  0
   21.7089   16.3190   -5.9942 H   0  0  0  0  0  0  0  0  0  0  0  0
   21.5653   14.9272   -7.0728 H   0  0  0  0  0  0  0  0  0  0  0  0
   25.1937   15.4884   -6.6877 H   0  0  0  0  0  0  0  0  0  0  0  0
   23.8579   16.3943   -7.3973 H   0  0  0  0  0  0  0  0  0  0  0  0
  1  2  1  0
  1  8  1  0
  1  9  1  0
  1 10  1  0
  2  3  1  0
  2  4  1  0
  2 11  1  0
  3 12  1  0
  3 13  1  0
  4  5  1  0
  4 14  1  0
  4 15  1  0
  5  6  2  0
  5  7  1  0
  7 16  1  0
  7 17  1  0
M  END
> <intraLJ>
2.234     

> <intraEL>
-12.423   

> <intraDihe>
3.023     

> <interLJ>
0.000     

> <interEJ>
0.000     

> <gridLJ>
-3.142    

> <gridEL>
0.000     

> <totalE>
-10.308   

> <LGFE>
-3.142  

> <LE>
-0.449  

> <SMILES>
CC(N)CC(N)=O

> <atom.dprop.GFE>
-0.67 -0.63 -0.41 -0.46 0 -0.6 -0.38 0 0 0 0 0 0 0 0 0 0

> <atom.prop.CLASS>
PRPC PRPC GEND PRPC NCLA GENA GEND NCLA NCLA NCLA NCLA NCLA NCLA NCLA NCLA NCLA NCLA

$$$$
