70_2
     RDKit          3D

 12 12  0  0  0  0  0  0  0  0999 V2000
  -19.4949   -0.5206   26.3808 N   0  0  0  0  0  0  0  0  0  0  0  0
  -20.0450   -0.1705   27.5773 C   0  0  0  0  0  0  0  0  0  0  0  0
  -20.1708   -0.8660   28.7436 C   0  0  0  0  0  0  0  0  0  0  0  0
  -20.8115   -0.0556   29.6877 C   0  0  0  0  0  0  0  0  0  0  0  0
  -21.1462   -0.2510   30.8814 O   0  0  0  0  0  0  0  0  0  0  0  0
  -21.0607    1.1286   29.0665 N   0  0  0  0  0  0  0  0  0  0  0  0
  -20.5633    1.0544   27.7018 N   0  0  0  0  0  0  0  0  0  0  0  0
  -19.3674   -1.5291   26.2147 H   0  0  0  0  0  0  0  0  0  0  0  0
  -19.7855    0.0325   25.5639 H   0  0  0  0  0  0  0  0  0  0  0  0
  -19.8408   -1.8516   28.9180 H   0  0  0  0  0  0  0  0  0  0  0  0
  -21.5161    1.9410   29.5131 H   0  0  0  0  0  0  0  0  0  0  0  0
  -20.5690    1.8202   27.0042 H   0  0  0  0  0  0  0  0  0  0  0  0
  1  2  1  0
  1  8  1  0
  1  9  1  0
  2  3  2  0
  2  7  1  0
  3  4  1  0
  3 10  1  0
  4  5  2  0
  4  6  1  0
  6  7  1  0
  6 11  1  0
  7 12  1  0
M  END
> <intraLJ>
-0.628    

> <intraEL>
-11.018   

> <intraDihe>
1.030     

> <interLJ>
0.000     

> <interEJ>
0.000     

> <gridLJ>
-2.706    

> <gridEL>
0.000     

> <totalE>
-13.322   

> <LGFE>
-2.706  

> <LE>
-0.387  

> <SMILES>
Nc1cc(=O)[nH][nH]1

> <atom.dprop.GFE>
-0.47 -0.22 -0.26 -0.2 -0.58 -0.56 -0.42 0 0 0 0 0

> <atom.prop.CLASS>
GEND GEHC GEHC GEHC GENA GEND GEND NCLA NCLA NCLA NCLA NCLA

$$$$
