35_1
     RDKit          3D

 10 10  0  0  0  0  0  0  0  0999 V2000
  -26.5029  -17.8506    4.7581 N   0  0  0  0  0  0  0  0  0  0  0  0
  -25.7121  -17.9686    5.8548 C   0  0  0  0  0  0  0  0  0  0  0  0
  -24.5849  -18.6887    5.8367 N   0  0  0  0  0  0  0  0  0  0  0  0
  -24.1467  -18.5396    7.0365 C   0  0  0  0  0  0  0  0  0  0  0  0
  -24.9856  -17.7548    7.7201 N   0  0  0  0  0  0  0  0  0  0  0  0
  -26.0124  -17.3670    6.9472 N   0  0  0  0  0  0  0  0  0  0  0  0
  -27.0035  -16.9610    4.8310 H   0  0  0  0  0  0  0  0  0  0  0  0
  -25.9101  -17.9343    3.9271 H   0  0  0  0  0  0  0  0  0  0  0  0
  -23.2723  -18.9408    7.4815 H   0  0  0  0  0  0  0  0  0  0  0  0
  -24.8648  -17.4789    8.7101 H   0  0  0  0  0  0  0  0  0  0  0  0
  1  2  1  0
  1  7  1  0
  1  8  1  0
  2  3  1  0
  2  6  2  0
  3  4  2  0
  4  5  1  0
  4  9  1  0
  5  6  1  0
  5 10  1  0
M  END
> <intraLJ>
0.124     

> <intraEL>
-9.860    

> <intraDihe>
2.848     

> <interLJ>
0.000     

> <interEJ>
0.000     

> <gridLJ>
-2.403    

> <gridEL>
0.000     

> <totalE>
-9.291    

> <LGFE>
-2.403  

> <LE>
-0.401  

> <SMILES>
Nc1nc[nH]n1

> <atom.dprop.GFE>
-0.14 -0.16 -0.61 -0.11 -0.68 -0.7 0 0 0 0

> <atom.prop.CLASS>
GEND GEHC GENA GEHC GEND GENA NCLA NCLA NCLA NCLA

$$$$
