50_2
     RDKit          3D

 13 12  0  0  1  0  0  0  0  0999 V2000
   16.9497    6.9983   -4.8362 C   0  0  0  0  0  0  0  0  0  0  0  0
   17.6264    6.4693   -6.1026 C   0  0  0  0  0  0  0  0  0  0  0  0
   18.1583    5.1811   -5.7723 N   0  0  0  0  0  0  0  0  0  0  0  0
   18.8266    7.2802   -6.3626 C   0  0  0  0  0  0  0  0  0  0  0  0
   19.7984    7.9402   -6.5735 C   0  0  0  0  0  0  0  0  0  0  0  0
   16.6002    8.0120   -5.0446 H   0  0  0  0  0  0  0  0  0  0  0  0
   17.6563    7.0223   -4.0047 H   0  0  0  0  0  0  0  0  0  0  0  0
   16.0922    6.3670   -4.5988 H   0  0  0  0  0  0  0  0  0  0  0  0
   16.9525    6.4595   -6.9541 H   0  0  0  0  0  0  0  0  0  0  0  0
   18.7971    5.3335   -5.0075 H   0  0  0  0  0  0  0  0  0  0  0  0
   18.6715    4.8634   -6.5812 H   0  0  0  0  0  0  0  0  0  0  0  0
   17.4020    4.5654   -5.5230 H   0  0  0  0  0  0  0  0  0  0  0  0
   20.6476    8.5108   -6.7548 H   0  0  0  0  0  0  0  0  0  0  0  0
  1  2  1  0
  1  6  1  0
  1  7  1  0
  1  8  1  0
  2  3  1  0
  2  4  1  0
  2  9  1  0
  3 10  1  0
  3 11  1  0
  3 12  1  0
  4  5  3  0
  5 13  1  0
M  CHG  1   3   1
M  END
> <intraLJ>
0.426     

> <intraEL>
-0.039    

> <intraDihe>
0.051     

> <interLJ>
0.000     

> <interEJ>
0.000     

> <gridLJ>
-3.738    

> <gridEL>
0.000     

> <totalE>
-3.300    

> <LGFE>
-3.738  

> <LE>
-0.748  

> <SMILES>
C#CC(C)[NH3+]

> <atom.dprop.GFE>
-0.55 -0.56 -1.8 -0.44 -0.44 0 0 0 0 0 0 0 0

> <atom.prop.CLASS>
PRPC PRPC MAMN PRPC PRPC NCLA NCLA NCLA NCLA NCLA NCLA NCLA NCLA

$$$$
