65
     RDKit          3D

 12 12  0  0  0  0  0  0  0  0999 V2000
   20.9206   -0.3280  -21.2438 N   0  0  0  0  0  0  0  0  0  0  0  0
   22.1754   -0.4352  -21.6808 C   0  0  0  0  0  0  0  0  0  0  0  0
   22.4167   -1.3818  -22.5771 N   0  0  0  0  0  0  0  0  0  0  0  0
   23.6587   -1.4929  -23.0166 C   0  0  0  0  0  0  0  0  0  0  0  0
   24.6450   -0.6374  -22.5483 C   0  0  0  0  0  0  0  0  0  0  0  0
   24.2992    0.3306  -21.6154 C   0  0  0  0  0  0  0  0  0  0  0  0
   23.0531    0.4275  -21.1867 N   0  0  0  0  0  0  0  0  0  0  0  0
   20.7155    0.5928  -20.8482 H   0  0  0  0  0  0  0  0  0  0  0  0
   20.2407   -0.7473  -21.8839 H   0  0  0  0  0  0  0  0  0  0  0  0
   23.8824   -2.2448  -23.7311 H   0  0  0  0  0  0  0  0  0  0  0  0
   25.6411   -0.7203  -22.8946 H   0  0  0  0  0  0  0  0  0  0  0  0
   25.0245    1.0044  -21.2340 H   0  0  0  0  0  0  0  0  0  0  0  0
  1  2  1  0
  1  8  1  0
  1  9  1  0
  2  3  2  0
  2  7  1  0
  3  4  1  0
  4  5  2  0
  4 10  1  0
  5  6  1  0
  5 11  1  0
  6  7  2  0
  6 12  1  0
M  END
> <intraLJ>
20.123    

> <intraEL>
-18.333   

> <intraDihe>
1.049     

> <interLJ>
0.000     

> <interEJ>
0.000     

> <gridLJ>
-2.354    

> <gridEL>
0.000     

> <totalE>
0.484     

> <LGFE>
-2.354  

> <LE>
-0.336  

> <SMILES>
Nc1ncccn1

> <atom.dprop.GFE>
-0.72 -0.17 -0.45 -0.095 -0.14 -0.16 -0.62 0 0 0 0 0

> <atom.prop.CLASS>
GEND GEHC GENA BENC BENC BENC GENA NCLA NCLA NCLA NCLA NCLA

$$$$
