42_1
     RDKit          3D

 17 16  0  0  1  0  0  0  0  0999 V2000
  -18.0298   -9.1176   -9.5469 C   0  0  0  0  0  0  0  0  0  0  0  0
  -17.0718   -8.9368   -8.4598 N   0  0  0  0  0  0  0  0  0  0  0  0
  -16.6330   -7.7314   -8.0736 C   0  0  0  0  0  0  0  0  0  0  0  0
  -17.0233   -6.7065   -8.6278 O   0  0  0  0  0  0  0  0  0  0  0  0
  -15.6192   -7.6632   -6.8901 C   0  0  0  0  0  0  0  0  0  0  0  0
  -15.2539   -9.0617   -6.3919 C   0  0  0  0  0  0  0  0  0  0  0  0
  -16.0996   -6.8829   -5.7227 N   0  0  0  0  0  0  0  0  0  0  0  0
  -18.2482  -10.1770   -9.6884 H   0  0  0  0  0  0  0  0  0  0  0  0
  -17.6215   -8.7083  -10.4728 H   0  0  0  0  0  0  0  0  0  0  0  0
  -18.9570   -8.5890   -9.3137 H   0  0  0  0  0  0  0  0  0  0  0  0
  -16.7350   -9.7529   -7.9776 H   0  0  0  0  0  0  0  0  0  0  0  0
  -14.7084   -7.2096   -7.2844 H   0  0  0  0  0  0  0  0  0  0  0  0
  -16.1473   -9.5583   -6.0116 H   0  0  0  0  0  0  0  0  0  0  0  0
  -14.5196   -8.9802   -5.5899 H   0  0  0  0  0  0  0  0  0  0  0  0
  -14.8331   -9.6501   -7.2065 H   0  0  0  0  0  0  0  0  0  0  0  0
  -16.9591   -7.3158   -5.4103 H   0  0  0  0  0  0  0  0  0  0  0  0
  -16.3616   -5.9601   -6.0424 H   0  0  0  0  0  0  0  0  0  0  0  0
  1  2  1  0
  1  8  1  0
  1  9  1  0
  1 10  1  0
  2  3  1  0
  2 11  1  0
  3  4  2  0
  3  5  1  0
  5  6  1  0
  5  7  1  0
  5 12  1  0
  6 13  1  0
  6 14  1  0
  6 15  1  0
  7 16  1  0
  7 17  1  0
M  END
> <intraLJ>
0.654     

> <intraEL>
6.395     

> <intraDihe>
1.048     

> <interLJ>
0.000     

> <interEJ>
0.000     

> <gridLJ>
-3.150    

> <gridEL>
0.000     

> <totalE>
4.947     

> <LGFE>
-3.150  

> <LE>
-0.450  

> <SMILES>
CNC(=O)C(C)N

> <atom.dprop.GFE>
-0.21 -0.11 0 -1.2 -0.089 -0.13 -1.4 0 0 0 0 0 0 0 0 0 0

> <atom.prop.CLASS>
PRPC GEND NCLA GENA PRPC PRPC GEND NCLA NCLA NCLA NCLA NCLA NCLA NCLA NCLA NCLA NCLA

$$$$
