76_1
     RDKit          3D

 22 21  0  0  0  0  0  0  0  0999 V2000
  -19.7319    6.7844   -5.6038 C   0  0  0  0  0  0  0  0  0  0  0  0
  -20.0766    6.5540   -4.1270 C   0  0  0  0  0  0  0  0  0  0  0  0
  -21.0600    7.6438   -3.6725 C   0  0  0  0  0  0  0  0  0  0  0  0
  -18.7785    6.5459   -3.2975 C   0  0  0  0  0  0  0  0  0  0  0  0
  -18.0344    7.8920   -3.3155 C   0  0  0  0  0  0  0  0  0  0  0  0
  -16.7568    7.8201   -2.4817 C   0  0  0  0  0  0  0  0  0  0  0  0
  -16.0742    9.1261   -2.5061 N   0  0  0  0  0  0  0  0  0  0  0  0
  -20.6399    6.7582   -6.2063 H   0  0  0  0  0  0  0  0  0  0  0  0
  -19.0608    5.9990   -5.9566 H   0  0  0  0  0  0  0  0  0  0  0  0
  -19.2461    7.7526   -5.7330 H   0  0  0  0  0  0  0  0  0  0  0  0
  -20.5630    5.5797   -4.0332 H   0  0  0  0  0  0  0  0  0  0  0  0
  -20.5771    8.6216   -3.6992 H   0  0  0  0  0  0  0  0  0  0  0  0
  -21.4090    7.4417   -2.6605 H   0  0  0  0  0  0  0  0  0  0  0  0
  -21.9292    7.6575   -4.3324 H   0  0  0  0  0  0  0  0  0  0  0  0
  -18.1157    5.7631   -3.6728 H   0  0  0  0  0  0  0  0  0  0  0  0
  -19.0317    6.3078   -2.2632 H   0  0  0  0  0  0  0  0  0  0  0  0
  -18.6774    8.6713   -2.9030 H   0  0  0  0  0  0  0  0  0  0  0  0
  -17.7688    8.1580   -4.3375 H   0  0  0  0  0  0  0  0  0  0  0  0
  -16.1012    7.0471   -2.8897 H   0  0  0  0  0  0  0  0  0  0  0  0
  -17.0116    7.5590   -1.4522 H   0  0  0  0  0  0  0  0  0  0  0  0
  -15.8473    9.3837   -3.4576 H   0  0  0  0  0  0  0  0  0  0  0  0
  -15.2281    9.0937   -1.9542 H   0  0  0  0  0  0  0  0  0  0  0  0
  1  2  1  0
  1  8  1  0
  1  9  1  0
  1 10  1  0
  2  3  1  0
  2  4  1  0
  2 11  1  0
  3 12  1  0
  3 13  1  0
  3 14  1  0
  4  5  1  0
  4 15  1  0
  4 16  1  0
  5  6  1  0
  5 17  1  0
  5 18  1  0
  6  7  1  0
  6 19  1  0
  6 20  1  0
  7 21  1  0
  7 22  1  0
M  END
> <intraLJ>
1.418     

> <intraEL>
-0.922    

> <intraDihe>
0.082     

> <interLJ>
0.000     

> <interEJ>
0.000     

> <gridLJ>
-2.987    

> <gridEL>
0.000     

> <totalE>
-2.409    

> <LGFE>
-2.987  

> <LE>
-0.427  

> <SMILES>
CC(C)CCCN

> <atom.dprop.GFE>
-0.065 -0.14 -0.048 -0.42 -0.41 -0.52 -1.4 0 0 0 0 0 0 0 0 0 0 0 0 0 0 0

> <atom.prop.CLASS>
PRPC PRPC PRPC PRPC PRPC PRPC GEND NCLA NCLA NCLA NCLA NCLA NCLA NCLA NCLA NCLA NCLA NCLA NCLA NCLA NCLA NCLA

$$$$
