20_1
     RDKit          3D

 17 17  0  0  0  0  0  0  0  0999 V2000
   22.4033    7.9256   -8.4764 N   0  0  0  0  0  0  0  0  0  0  0  0
   23.0300    6.6049   -8.6009 C   0  0  0  0  0  0  0  0  0  0  0  0
   22.5219    5.6402   -7.5423 C   0  0  0  0  0  0  0  0  0  0  0  0
   23.5870    4.5400   -7.5025 C   0  0  0  0  0  0  0  0  0  0  0  0
   24.8925    5.2151   -7.9458 C   0  0  0  0  0  0  0  0  0  0  0  0
   24.5194    6.6590   -8.2965 C   0  0  0  0  0  0  0  0  0  0  0  0
   21.4082    7.8482   -8.6292 H   0  0  0  0  0  0  0  0  0  0  0  0
   22.8031    8.5598   -9.1539 H   0  0  0  0  0  0  0  0  0  0  0  0
   22.8712    6.1800   -9.5954 H   0  0  0  0  0  0  0  0  0  0  0  0
   21.5398    5.2438   -7.8008 H   0  0  0  0  0  0  0  0  0  0  0  0
   22.4817    6.1482   -6.5768 H   0  0  0  0  0  0  0  0  0  0  0  0
   23.3270    3.7496   -8.2088 H   0  0  0  0  0  0  0  0  0  0  0  0
   23.6765    4.1246   -6.4977 H   0  0  0  0  0  0  0  0  0  0  0  0
   25.2883    4.7054   -8.8263 H   0  0  0  0  0  0  0  0  0  0  0  0
   25.6344    5.1978   -7.1455 H   0  0  0  0  0  0  0  0  0  0  0  0
   24.6877    7.3008   -7.4300 H   0  0  0  0  0  0  0  0  0  0  0  0
   25.0870    7.0281   -9.1511 H   0  0  0  0  0  0  0  0  0  0  0  0
  1  2  1  0
  1  7  1  0
  1  8  1  0
  2  3  1  0
  2  6  1  0
  2  9  1  0
  3  4  1  0
  3 10  1  0
  3 11  1  0
  4  5  1  0
  4 12  1  0
  4 13  1  0
  5  6  1  0
  5 14  1  0
  5 15  1  0
  6 16  1  0
  6 17  1  0
M  END
> <intraLJ>
0.465     

> <intraEL>
-1.894    

> <intraDihe>
13.208    

> <interLJ>
0.000     

> <interEJ>
0.000     

> <gridLJ>
-2.854    

> <gridEL>
0.000     

> <totalE>
8.924     

> <LGFE>
-2.854  

> <LE>
-0.476  

> <SMILES>
NC1CCCC1

> <atom.dprop.GFE>
-1.3 -0.38 -0.29 -0.23 -0.31 -0.37 0 0 0 0 0 0 0 0 0 0 0

> <atom.prop.CLASS>
GEND PRPC PRPC PRPC PRPC PRPC NCLA NCLA NCLA NCLA NCLA NCLA NCLA NCLA NCLA NCLA NCLA

$$$$
