27_2
     RDKit          3D

 12 12  0  0  0  0  0  0  0  0999 V2000
    7.5611   -4.1267   -8.6363 N   0  0  0  0  0  0  0  0  0  0  0  0
    8.3248   -4.4800   -9.6425 C   0  0  0  0  0  0  0  0  0  0  0  0
    9.5483   -4.9469   -9.5440 N   0  0  0  0  0  0  0  0  0  0  0  0
   10.0321   -5.2067  -10.8139 C   0  0  0  0  0  0  0  0  0  0  0  0
    9.0486   -4.8756  -11.6761 C   0  0  0  0  0  0  0  0  0  0  0  0
    7.9885   -4.4218  -10.9107 N   0  0  0  0  0  0  0  0  0  0  0  0
    6.6134   -3.7697   -8.8068 H   0  0  0  0  0  0  0  0  0  0  0  0
    7.9064   -4.2057   -7.6729 H   0  0  0  0  0  0  0  0  0  0  0  0
   10.0330   -5.0837   -8.6463 H   0  0  0  0  0  0  0  0  0  0  0  0
   11.0046   -5.5936  -10.9981 H   0  0  0  0  0  0  0  0  0  0  0  0
    9.0206   -4.9252  -12.7370 H   0  0  0  0  0  0  0  0  0  0  0  0
    7.0736   -4.0865  -11.2402 H   0  0  0  0  0  0  0  0  0  0  0  0
  1  2  2  0
  1  7  1  0
  1  8  1  0
  2  3  1  0
  2  6  1  0
  3  4  1  0
  3  9  1  0
  4  5  2  0
  4 10  1  0
  5  6  1  0
  5 11  1  0
  6 12  1  0
M  CHG  1   1   1
M  END
> <intraLJ>
-0.384    

> <intraEL>
3.349     

> <intraDihe>
0.000     

> <interLJ>
0.000     

> <interEJ>
0.000     

> <gridLJ>
-3.542    

> <gridEL>
0.000     

> <totalE>
-0.577    

> <LGFE>
-3.542  

> <LE>
-0.590  

> <SMILES>
[NH2+]=c1[nH]cc[nH]1

> <atom.dprop.GFE>
-1.7 -1.4 0 -0.21 -0.22 0 0 0 0 0 0 0

> <atom.prop.CLASS>
MAMN MAMC NCLA GEHC GEHC NCLA NCLA NCLA NCLA NCLA NCLA NCLA

$$$$
