40_3
     RDKit          3D

 11 11  0  0  0  0  0  0  0  0999 V2000
  -32.0357   -8.9961   22.2538 O   0  0  0  0  0  0  0  0  0  0  0  0
  -32.6961   -8.0002   22.6142 C   0  0  0  0  0  0  0  0  0  0  0  0
  -33.0918   -7.8436   23.9732 C   0  0  0  0  0  0  0  0  0  0  0  0
  -33.8112   -6.7481   24.3400 C   0  0  0  0  0  0  0  0  0  0  0  0
  -34.1421   -5.8091   23.3786 N   0  0  0  0  0  0  0  0  0  0  0  0
  -33.7787   -5.9293   22.0720 N   0  0  0  0  0  0  0  0  0  0  0  0
  -33.0892   -6.9711   21.6975 C   0  0  0  0  0  0  0  0  0  0  0  0
  -32.8160   -8.5887   24.6719 H   0  0  0  0  0  0  0  0  0  0  0  0
  -34.1525   -6.5405   25.3244 H   0  0  0  0  0  0  0  0  0  0  0  0
  -34.6932   -4.9639   23.6468 H   0  0  0  0  0  0  0  0  0  0  0  0
  -32.8098   -7.0609   20.6801 H   0  0  0  0  0  0  0  0  0  0  0  0
  1  2  2  0
  2  3  1  0
  2  7  1  0
  3  4  2  0
  3  8  1  0
  4  5  1  0
  4  9  1  0
  5  6  1  0
  5 10  1  0
  6  7  2  0
  7 11  1  0
M  END
> <intraLJ>
10.148    

> <intraEL>
-0.725    

> <intraDihe>
0.000     

> <interLJ>
0.000     

> <interEJ>
0.000     

> <gridLJ>
-2.065    

> <gridEL>
0.000     

> <totalE>
7.358     

> <LGFE>
-2.065  

> <LE>
-0.295  

> <SMILES>
O=c1cc[nH]nc1

> <atom.dprop.GFE>
-0.66 -0.044 -0.077 -0.11 -0.5 -0.55 -0.11 0 0 0 0

> <atom.prop.CLASS>
GENA GEHC BENC BENC GEND GENA BENC NCLA NCLA NCLA NCLA

$$$$
