36_1
     RDKit          3D

 13 13  0  0  0  0  0  0  0  0999 V2000
  -39.6584   -4.4952   23.6364 N   0  0  0  0  0  0  0  0  0  0  0  0
  -40.0408   -4.8270   25.0042 C   0  0  0  0  0  0  0  0  0  0  0  0
  -40.2000   -3.4869   25.6966 C   0  0  0  0  0  0  0  0  0  0  0  0
  -41.3576   -2.9028   26.0491 C   0  0  0  0  0  0  0  0  0  0  0  0
  -41.0778   -1.7452   26.6234 O   0  0  0  0  0  0  0  0  0  0  0  0
  -39.7375   -1.6589   26.6033 C   0  0  0  0  0  0  0  0  0  0  0  0
  -39.1655   -2.6742   26.0584 N   0  0  0  0  0  0  0  0  0  0  0  0
  -38.8318   -3.9139   23.7180 H   0  0  0  0  0  0  0  0  0  0  0  0
  -40.3798   -3.9058   23.2464 H   0  0  0  0  0  0  0  0  0  0  0  0
  -39.2430   -5.3772   25.4861 H   0  0  0  0  0  0  0  0  0  0  0  0
  -40.9854   -5.3570   25.0084 H   0  0  0  0  0  0  0  0  0  0  0  0
  -42.3588   -3.2282   25.9298 H   0  0  0  0  0  0  0  0  0  0  0  0
  -39.2692   -0.8000   27.0161 H   0  0  0  0  0  0  0  0  0  0  0  0
  1  2  1  0
  1  8  1  0
  1  9  1  0
  2  3  1  0
  2 10  1  0
  2 11  1  0
  3  4  2  0
  3  7  1  0
  4  5  1  0
  4 12  1  0
  5  6  1  0
  6  7  2  0
  6 13  1  0
M  END
> <intraLJ>
0.924     

> <intraEL>
3.158     

> <intraDihe>
2.714     

> <interLJ>
0.000     

> <interEJ>
0.000     

> <gridLJ>
-2.644    

> <gridEL>
0.000     

> <totalE>
4.152     

> <LGFE>
-2.644  

> <LE>
-0.378  

> <SMILES>
NCc1cocn1

> <atom.dprop.GFE>
-0.72 -0.3 -0.12 -0.052 -0.6 -0.15 -0.7 0 0 0 0 0 0

> <atom.prop.CLASS>
GEND PRPC GEHC GEHC GENA GEHC GENA NCLA NCLA NCLA NCLA NCLA NCLA

$$$$
