69_1
     RDKit          3D

 14 14  0  0  0  0  0  0  0  0999 V2000
  -10.5136    8.4176   14.7145 C   0  0  0  0  0  0  0  0  0  0  0  0
  -11.4371    8.1121   15.7936 N   0  0  0  0  0  0  0  0  0  0  0  0
  -12.3265    8.9703   16.3597 C   0  0  0  0  0  0  0  0  0  0  0  0
  -13.0168    8.3949   17.3043 N   0  0  0  0  0  0  0  0  0  0  0  0
  -12.5487    7.1329   17.3271 C   0  0  0  0  0  0  0  0  0  0  0  0
  -13.0521    6.2190   18.2329 N   0  0  0  0  0  0  0  0  0  0  0  0
  -11.5745    6.9251   16.4199 C   0  0  0  0  0  0  0  0  0  0  0  0
  -10.6735    9.4461   14.4243 H   0  0  0  0  0  0  0  0  0  0  0  0
  -10.7384    7.7360   13.9052 H   0  0  0  0  0  0  0  0  0  0  0  0
   -9.5156    8.2627   15.0997 H   0  0  0  0  0  0  0  0  0  0  0  0
  -12.3998    9.9750   16.0284 H   0  0  0  0  0  0  0  0  0  0  0  0
  -12.2866    5.6513   18.6097 H   0  0  0  0  0  0  0  0  0  0  0  0
  -13.5264    6.7606   18.9662 H   0  0  0  0  0  0  0  0  0  0  0  0
  -11.0113    6.0602   16.1896 H   0  0  0  0  0  0  0  0  0  0  0  0
  1  2  1  0
  1  8  1  0
  1  9  1  0
  1 10  1  0
  2  3  1  0
  2  7  1  0
  3  4  2  0
  3 11  1  0
  4  5  1  0
  5  6  1  0
  5  7  2  0
  6 12  1  0
  6 13  1  0
  7 14  1  0
M  END
> <intraLJ>
0.484     

> <intraEL>
-6.835    

> <intraDihe>
2.003     

> <interLJ>
0.000     

> <interEJ>
0.000     

> <gridLJ>
-2.041    

> <gridEL>
0.000     

> <totalE>
-6.389    

> <LGFE>
-2.041  

> <LE>
-0.292  

> <SMILES>
Cn1cnc(N)c1

> <atom.dprop.GFE>
-0.05 -0.16 -0.17 -0.44 -0.22 -0.82 -0.19 0 0 0 0 0 0 0

> <atom.prop.CLASS>
PRPC GEHC GEHC GENA GEHC GEND GEHC NCLA NCLA NCLA NCLA NCLA NCLA NCLA

$$$$
