47_1
     RDKit          3D

 10  9  0  0  0  0  0  0  0  0999 V2000
  -27.9770    3.4644    7.8191 N   0  0  0  0  0  0  0  0  0  0  0  0
  -27.2978    4.0559    6.6235 C   0  0  0  0  0  0  0  0  0  0  0  0
  -25.7536    4.0062    6.6530 C   0  0  0  0  0  0  0  0  0  0  0  0
  -25.0725    4.7949    7.2925 O   0  0  0  0  0  0  0  0  0  0  0  0
  -25.0731    3.0509    5.9899 O   0  0  0  0  0  0  0  0  0  0  0  0
  -28.9710    3.6458    7.7972 H   0  0  0  0  0  0  0  0  0  0  0  0
  -27.5749    3.8492    8.6665 H   0  0  0  0  0  0  0  0  0  0  0  0
  -27.5824    5.1039    6.5346 H   0  0  0  0  0  0  0  0  0  0  0  0
  -27.6306    3.5342    5.7243 H   0  0  0  0  0  0  0  0  0  0  0  0
  -24.1569    3.2721    6.1577 H   0  0  0  0  0  0  0  0  0  0  0  0
  1  2  1  0
  1  6  1  0
  1  7  1  0
  2  3  1  0
  2  8  1  0
  2  9  1  0
  3  4  2  0
  3  5  1  0
  5 10  1  0
M  END
> <intraLJ>
-0.296    

> <intraEL>
3.167     

> <intraDihe>
0.054     

> <interLJ>
0.000     

> <interEJ>
0.000     

> <gridLJ>
-2.542    

> <gridEL>
0.000     

> <totalE>
0.383     

> <LGFE>
-2.542  

> <LE>
-0.508  

> <SMILES>
NCC(=O)O

> <atom.dprop.GFE>
-0.51 -0.31 0 -0.87 -0.86 0 0 0 0 0

> <atom.prop.CLASS>
GEND PRPC NCLA GENA MEOO NCLA NCLA NCLA NCLA NCLA

$$$$
