79
     RDKit          3D

 13 12  0  0  0  0  0  0  0  0999 V2000
   19.7917   -6.0501  -25.6579 C   0  0  0  0  0  0  0  0  0  0  0  0
   19.1621   -5.0109  -26.5822 C   0  0  0  0  0  0  0  0  0  0  0  0
   20.1245   -4.8387  -27.6440 O   0  0  0  0  0  0  0  0  0  0  0  0
   21.1305   -3.9479  -27.6622 C   0  0  0  0  0  0  0  0  0  0  0  0
   21.3235   -3.1770  -26.7475 O   0  0  0  0  0  0  0  0  0  0  0  0
   21.9307   -3.9336  -28.7375 N   0  0  0  0  0  0  0  0  0  0  0  0
   19.1278   -6.2460  -24.8160 H   0  0  0  0  0  0  0  0  0  0  0  0
   20.7477   -5.6780  -25.2860 H   0  0  0  0  0  0  0  0  0  0  0  0
   19.9605   -6.9761  -26.2086 H   0  0  0  0  0  0  0  0  0  0  0  0
   19.0127   -4.0734  -26.0440 H   0  0  0  0  0  0  0  0  0  0  0  0
   18.2174   -5.3878  -26.9791 H   0  0  0  0  0  0  0  0  0  0  0  0
   22.7001   -3.2564  -28.7434 H   0  0  0  0  0  0  0  0  0  0  0  0
   21.7806   -4.5831  -29.5116 H   0  0  0  0  0  0  0  0  0  0  0  0
  1  2  1  0
  1  7  1  0
  1  8  1  0
  1  9  1  0
  2  3  1  0
  2 10  1  0
  2 11  1  0
  3  4  1  0
  4  5  2  0
  4  6  1  0
  6 12  1  0
  6 13  1  0
M  END
> <intraLJ>
-0.005    

> <intraEL>
-7.831    

> <intraDihe>
1.202     

> <interLJ>
0.000     

> <interEJ>
0.000     

> <gridLJ>
-3.217    

> <gridEL>
0.000     

> <totalE>
-9.852    

> <LGFE>
-3.217  

> <LE>
-0.536  

> <SMILES>
CCOC(N)=O

> <atom.dprop.GFE>
-0.17 -0.11 -0.93 0 -1.5 -0.54 0 0 0 0 0 0 0

> <atom.prop.CLASS>
PRPC PRPC GENA NCLA GENA GEND NCLA NCLA NCLA NCLA NCLA NCLA NCLA

$$$$
