40_3
     RDKit          3D

 11 11  0  0  0  0  0  0  0  0999 V2000
   21.8488   -3.4518  -27.6221 O   0  0  0  0  0  0  0  0  0  0  0  0
   21.1756   -4.5025  -27.6451 C   0  0  0  0  0  0  0  0  0  0  0  0
   19.8743   -4.5446  -27.0682 C   0  0  0  0  0  0  0  0  0  0  0  0
   19.1608   -5.7029  -27.1070 C   0  0  0  0  0  0  0  0  0  0  0  0
   19.7204   -6.8165  -27.7091 N   0  0  0  0  0  0  0  0  0  0  0  0
   20.9610   -6.8086  -28.2698 N   0  0  0  0  0  0  0  0  0  0  0  0
   21.6631   -5.7098  -28.2440 C   0  0  0  0  0  0  0  0  0  0  0  0
   19.4892   -3.6678  -26.6183 H   0  0  0  0  0  0  0  0  0  0  0  0
   18.1858   -5.8359  -26.7066 H   0  0  0  0  0  0  0  0  0  0  0  0
   19.1835   -7.7111  -27.7461 H   0  0  0  0  0  0  0  0  0  0  0  0
   22.6279   -5.7087  -28.6803 H   0  0  0  0  0  0  0  0  0  0  0  0
  1  2  2  0
  2  3  1  0
  2  7  1  0
  3  4  2  0
  3  8  1  0
  4  5  1  0
  4  9  1  0
  5  6  1  0
  5 10  1  0
  6  7  2  0
  7 11  1  0
M  END
> <intraLJ>
10.148    

> <intraEL>
-0.725    

> <intraDihe>
0.000     

> <interLJ>
0.000     

> <interEJ>
0.000     

> <gridLJ>
-2.559    

> <gridEL>
0.000     

> <totalE>
6.864     

> <LGFE>
-2.559  

> <LE>
-0.366  

> <SMILES>
O=c1cc[nH]nc1

> <atom.dprop.GFE>
-1.5 -0.26 0.07 -0.055 -0.54 -0.24 -0.052 0 0 0 0

> <atom.prop.CLASS>
GENA GEHC BENC BENC GEND GENA BENC NCLA NCLA NCLA NCLA

$$$$
