32
     RDKit          3D

 17 16  0  0  0  0  0  0  0  0999 V2000
    7.0470   -7.2576    4.3134 C   0  0  0  0  0  0  0  0  0  0  0  0
    7.5553   -5.8409    4.0573 C   0  0  0  0  0  0  0  0  0  0  0  0
    7.5669   -5.0255    5.3491 C   0  0  0  0  0  0  0  0  0  0  0  0
    6.5894   -5.2181    3.1736 N   0  0  0  0  0  0  0  0  0  0  0  0
    6.8538   -4.7373    1.9443 C   0  0  0  0  0  0  0  0  0  0  0  0
    7.8747   -5.0317    1.3579 O   0  0  0  0  0  0  0  0  0  0  0  0
    5.9612   -3.9113    1.3960 N   0  0  0  0  0  0  0  0  0  0  0  0
    7.7241   -7.7726    4.9941 H   0  0  0  0  0  0  0  0  0  0  0  0
    7.0080   -7.8061    3.3714 H   0  0  0  0  0  0  0  0  0  0  0  0
    6.0500   -7.2312    4.7536 H   0  0  0  0  0  0  0  0  0  0  0  0
    8.5634   -5.8909    3.6429 H   0  0  0  0  0  0  0  0  0  0  0  0
    6.5669   -4.9820    5.7807 H   0  0  0  0  0  0  0  0  0  0  0  0
    7.9069   -4.0115    5.1373 H   0  0  0  0  0  0  0  0  0  0  0  0
    8.2477   -5.4827    6.0661 H   0  0  0  0  0  0  0  0  0  0  0  0
    5.8089   -4.7292    3.6255 H   0  0  0  0  0  0  0  0  0  0  0  0
    6.2902   -3.4126    0.5621 H   0  0  0  0  0  0  0  0  0  0  0  0
    5.3003   -3.4550    2.0261 H   0  0  0  0  0  0  0  0  0  0  0  0
  1  2  1  0
  1  8  1  0
  1  9  1  0
  1 10  1  0
  2  3  1  0
  2  4  1  0
  2 11  1  0
  3 12  1  0
  3 13  1  0
  3 14  1  0
  4  5  1  0
  4 15  1  0
  5  6  2  0
  5  7  1  0
  7 16  1  0
  7 17  1  0
M  END
> <intraLJ>
-0.655    

> <intraEL>
-9.458    

> <intraDihe>
5.470     

> <interLJ>
0.000     

> <interEJ>
0.000     

> <gridLJ>
-4.736    

> <gridEL>
0.000     

> <totalE>
-9.379    

> <LGFE>
-4.736  

> <LE>
-0.677  

> <SMILES>
CC(C)NC(N)=O

> <atom.dprop.GFE>
-0.27 -0.49 -0.29 -1.1 0 -1.5 -1.1 0 0 0 0 0 0 0 0 0 0

> <atom.prop.CLASS>
PRPC PRPC PRPC GEND NCLA GENA GEND NCLA NCLA NCLA NCLA NCLA NCLA NCLA NCLA NCLA NCLA

$$$$
