81_2
     RDKit          3D

 19 19  0  0  1  0  0  0  0  0999 V2000
    9.9001   10.9735    5.0769 N   0  0  0  0  0  0  0  0  0  0  0  0
   11.2805   10.5419    5.4110 C   0  0  0  0  0  0  0  0  0  0  0  0
   12.0005   11.6586    6.1836 C   0  0  0  0  0  0  0  0  0  0  0  0
   12.2030   12.9486    5.3952 C   0  0  0  0  0  0  0  0  0  0  0  0
   13.4493   13.5422    6.0537 C   0  0  0  0  0  0  0  0  0  0  0  0
   14.0677   12.3796    6.8340 C   0  0  0  0  0  0  0  0  0  0  0  0
   13.3216   11.2304    6.4613 O   0  0  0  0  0  0  0  0  0  0  0  0
    9.3463   10.2253    4.6891 H   0  0  0  0  0  0  0  0  0  0  0  0
    9.9181   11.7721    4.4597 H   0  0  0  0  0  0  0  0  0  0  0  0
    9.5042   11.3035    5.9559 H   0  0  0  0  0  0  0  0  0  0  0  0
   11.2342    9.6682    6.0659 H   0  0  0  0  0  0  0  0  0  0  0  0
   11.8519   10.2786    4.5173 H   0  0  0  0  0  0  0  0  0  0  0  0
   11.4801   11.8711    7.1201 H   0  0  0  0  0  0  0  0  0  0  0  0
   12.4138   12.7283    4.3464 H   0  0  0  0  0  0  0  0  0  0  0  0
   11.3455   13.6182    5.4845 H   0  0  0  0  0  0  0  0  0  0  0  0
   13.1790   14.3457    6.7420 H   0  0  0  0  0  0  0  0  0  0  0  0
   14.1454   13.9162    5.3001 H   0  0  0  0  0  0  0  0  0  0  0  0
   13.9635   12.5605    7.9058 H   0  0  0  0  0  0  0  0  0  0  0  0
   15.1242   12.2571    6.5851 H   0  0  0  0  0  0  0  0  0  0  0  0
  1  2  1  0
  1  8  1  0
  1  9  1  0
  1 10  1  0
  2  3  1  0
  2 11  1  0
  2 12  1  0
  3  4  1  0
  3  7  1  0
  3 13  1  0
  4  5  1  0
  4 14  1  0
  4 15  1  0
  5  6  1  0
  5 16  1  0
  5 17  1  0
  6  7  1  0
  6 18  1  0
  6 19  1  0
M  CHG  1   1   1
M  END
> <intraLJ>
-0.745    

> <intraEL>
2.670     

> <intraDihe>
7.602     

> <interLJ>
0.000     

> <interEJ>
0.000     

> <gridLJ>
-2.534    

> <gridEL>
0.000     

> <totalE>
6.993     

> <LGFE>
-2.534  

> <LE>
-0.362  

> <SMILES>
[NH3+]CC1CCCO1

> <atom.dprop.GFE>
-1.9 0.17 -0.13 -0.13 -0.19 -0.12 -0.24 0 0 0 0 0 0 0 0 0 0 0 0

> <atom.prop.CLASS>
MAMN PRPC PRPC PRPC PRPC PRPC GENA NCLA NCLA NCLA NCLA NCLA NCLA NCLA NCLA NCLA NCLA NCLA NCLA

$$$$
