49_2
     RDKit          3D

 19 19  0  0  1  0  0  0  0  0999 V2000
   -9.0284  -13.9879   -5.4221 O   0  0  0  0  0  0  0  0  0  0  0  0
   -9.0980  -13.2936   -4.1823 C   0  0  0  0  0  0  0  0  0  0  0  0
  -10.5413  -13.3736   -3.6517 C   0  0  0  0  0  0  0  0  0  0  0  0
  -11.0480  -14.7737   -3.3076 C   0  0  0  0  0  0  0  0  0  0  0  0
  -12.5761  -14.6619   -3.4970 C   0  0  0  0  0  0  0  0  0  0  0  0
  -12.7999  -13.2371   -4.0026 C   0  0  0  0  0  0  0  0  0  0  0  0
  -11.5203  -12.8629   -4.6214 N   0  0  0  0  0  0  0  0  0  0  0  0
   -8.1581  -13.8674   -5.8256 H   0  0  0  0  0  0  0  0  0  0  0  0
   -8.4146  -13.7561   -3.4666 H   0  0  0  0  0  0  0  0  0  0  0  0
   -8.8202  -12.2469   -4.3156 H   0  0  0  0  0  0  0  0  0  0  0  0
  -10.5995  -12.7629   -2.7457 H   0  0  0  0  0  0  0  0  0  0  0  0
  -10.6422  -15.5121   -4.0022 H   0  0  0  0  0  0  0  0  0  0  0  0
  -10.7880  -15.0379   -2.2817 H   0  0  0  0  0  0  0  0  0  0  0  0
  -13.1093  -14.8208   -2.5575 H   0  0  0  0  0  0  0  0  0  0  0  0
  -12.9164  -15.3823   -4.2438 H   0  0  0  0  0  0  0  0  0  0  0  0
  -12.9959  -12.5951   -3.1379 H   0  0  0  0  0  0  0  0  0  0  0  0
  -13.6415  -13.1747   -4.6983 H   0  0  0  0  0  0  0  0  0  0  0  0
  -11.3759  -11.8709   -4.7773 H   0  0  0  0  0  0  0  0  0  0  0  0
  -11.3864  -13.3546   -5.4916 H   0  0  0  0  0  0  0  0  0  0  0  0
  1  2  1  0
  1  8  1  0
  2  3  1  0
  2  9  1  0
  2 10  1  0
  3  4  1  0
  3  7  1  0
  3 11  1  0
  4  5  1  0
  4 12  1  0
  4 13  1  0
  5  6  1  0
  5 14  1  0
  5 15  1  0
  6  7  1  0
  6 16  1  0
  6 17  1  0
  7 18  1  0
  7 19  1  0
M  CHG  1   7   1
M  END
> <intraLJ>
1.097     

> <intraEL>
7.859     

> <intraDihe>
8.262     

> <interLJ>
0.000     

> <interEJ>
0.000     

> <gridLJ>
-2.381    

> <gridEL>
0.000     

> <totalE>
14.836    

> <LGFE>
-2.381  

> <LE>
-0.340  

> <SMILES>
OCC1CCC[NH2+]1

> <atom.dprop.GFE>
-0.12 -0.19 -0.22 -0.2 -0.055 -0.0057 -1.6 0 0 0 0 0 0 0 0 0 0 0 0

> <atom.prop.CLASS>
MEOO PRPC PRPC PRPC PRPC PRPC MAMN NCLA NCLA NCLA NCLA NCLA NCLA NCLA NCLA NCLA NCLA NCLA NCLA

$$$$
