60_1
     RDKit          3D

 13 13  0  0  0  0  0  0  0  0999 V2000
   -3.1468   -8.7335    4.3121 N   0  0  0  0  0  0  0  0  0  0  0  0
   -4.2343   -8.4133    3.5243 C   0  0  0  0  0  0  0  0  0  0  0  0
   -4.0804   -8.2088    2.1583 C   0  0  0  0  0  0  0  0  0  0  0  0
   -5.1963   -7.8799    1.4010 C   0  0  0  0  0  0  0  0  0  0  0  0
   -6.4123   -7.7592    1.9461 N   0  0  0  0  0  0  0  0  0  0  0  0
   -6.5672   -7.9627    3.2592 C   0  0  0  0  0  0  0  0  0  0  0  0
   -5.5012   -8.2937    4.0835 C   0  0  0  0  0  0  0  0  0  0  0  0
   -3.2517   -8.5523    5.3211 H   0  0  0  0  0  0  0  0  0  0  0  0
   -2.2225   -8.4964    3.9243 H   0  0  0  0  0  0  0  0  0  0  0  0
   -3.1294   -8.3040    1.7058 H   0  0  0  0  0  0  0  0  0  0  0  0
   -5.1044   -7.7176    0.3578 H   0  0  0  0  0  0  0  0  0  0  0  0
   -7.5437   -7.8642    3.6621 H   0  0  0  0  0  0  0  0  0  0  0  0
   -5.6476   -8.4551    5.1172 H   0  0  0  0  0  0  0  0  0  0  0  0
  1  2  1  0
  1  8  1  0
  1  9  1  0
  2  3  2  0
  2  7  1  0
  3  4  1  0
  3 10  1  0
  4  5  2  0
  4 11  1  0
  5  6  1  0
  6  7  2  0
  6 12  1  0
  7 13  1  0
M  END
> <intraLJ>
12.679    

> <intraEL>
-3.147    

> <intraDihe>
1.319     

> <interLJ>
0.000     

> <interEJ>
0.000     

> <gridLJ>
-2.374    

> <gridEL>
0.000     

> <totalE>
8.476     

> <LGFE>
-2.374  

> <LE>
-0.339  

> <SMILES>
Nc1ccncc1

> <atom.dprop.GFE>
-0.31 -0.066 -0.059 -0.26 -1.3 -0.27 -0.11 0 0 0 0 0 0

> <atom.prop.CLASS>
GEND BENC BENC GEHC GENA GEHC BENC NCLA NCLA NCLA NCLA NCLA NCLA

$$$$
