80
     RDKit          3D

 16 16  0  0  0  0  0  0  0  0999 V2000
    5.9493   -5.7782    1.3700 N   0  0  0  0  0  0  0  0  0  0  0  0
    7.1419   -5.9614    1.9575 C   0  0  0  0  0  0  0  0  0  0  0  0
    7.8186   -6.8637    1.5197 O   0  0  0  0  0  0  0  0  0  0  0  0
    7.5473   -5.0453    3.0999 C   0  0  0  0  0  0  0  0  0  0  0  0
    8.6950   -5.6183    3.9775 C   0  0  0  0  0  0  0  0  0  0  0  0
    7.9172   -5.0460    5.1998 C   0  0  0  0  0  0  0  0  0  0  0  0
    6.6210   -5.1544    4.3434 C   0  0  0  0  0  0  0  0  0  0  0  0
    5.7073   -6.3992    0.6164 H   0  0  0  0  0  0  0  0  0  0  0  0
    5.3291   -5.0505    1.6739 H   0  0  0  0  0  0  0  0  0  0  0  0
    7.7157   -4.0281    2.7666 H   0  0  0  0  0  0  0  0  0  0  0  0
    9.6553   -5.1517    3.8072 H   0  0  0  0  0  0  0  0  0  0  0  0
    8.7360   -6.6999    3.9860 H   0  0  0  0  0  0  0  0  0  0  0  0
    8.1854   -4.0200    5.4202 H   0  0  0  0  0  0  0  0  0  0  0  0
    7.9270   -5.6879    6.0696 H   0  0  0  0  0  0  0  0  0  0  0  0
    6.1412   -6.1191    4.4448 H   0  0  0  0  0  0  0  0  0  0  0  0
    5.9415   -4.3216    4.4618 H   0  0  0  0  0  0  0  0  0  0  0  0
  1  2  1  0
  1  8  1  0
  1  9  1  0
  2  3  2  0
  2  4  1  0
  4  5  1  0
  4  7  1  0
  4 10  1  0
  5  6  1  0
  5 11  1  0
  5 12  1  0
  6  7  1  0
  6 13  1  0
  6 14  1  0
  7 15  1  0
  7 16  1  0
M  END
> <intraLJ>
0.049     

> <intraEL>
-0.844    

> <intraDihe>
21.670    

> <interLJ>
0.000     

> <interEJ>
0.000     

> <gridLJ>
-4.252    

> <gridEL>
0.000     

> <totalE>
16.623    

> <LGFE>
-4.252  

> <LE>
-0.607  

> <SMILES>
NC(=O)C1CCC1

> <atom.dprop.GFE>
-1.2 0 -1.3 -0.59 -0.41 -0.29 -0.47 0 0 0 0 0 0 0 0 0

> <atom.prop.CLASS>
GEND NCLA GENA PRPC PRPC PRPC PRPC NCLA NCLA NCLA NCLA NCLA NCLA NCLA NCLA NCLA

$$$$
