69_1
     RDKit          3D

 14 14  0  0  0  0  0  0  0  0999 V2000
    3.7954   -4.5794   -5.5945 C   0  0  0  0  0  0  0  0  0  0  0  0
    2.6688   -3.6795   -5.4164 N   0  0  0  0  0  0  0  0  0  0  0  0
    2.1513   -2.8416   -6.3536 C   0  0  0  0  0  0  0  0  0  0  0  0
    1.1391   -2.1645   -5.8880 N   0  0  0  0  0  0  0  0  0  0  0  0
    1.0143   -2.5965   -4.6191 C   0  0  0  0  0  0  0  0  0  0  0  0
    0.0304   -2.0773   -3.7996 N   0  0  0  0  0  0  0  0  0  0  0  0
    1.9395   -3.5199   -4.2927 C   0  0  0  0  0  0  0  0  0  0  0  0
    4.1383   -4.4814   -6.6145 H   0  0  0  0  0  0  0  0  0  0  0  0
    3.4355   -5.5788   -5.3896 H   0  0  0  0  0  0  0  0  0  0  0  0
    4.5554   -4.2774   -4.8878 H   0  0  0  0  0  0  0  0  0  0  0  0
    2.5678   -2.7908   -7.3275 H   0  0  0  0  0  0  0  0  0  0  0  0
    0.4090   -1.9305   -2.8587 H   0  0  0  0  0  0  0  0  0  0  0  0
   -0.2795   -1.1976   -4.2312 H   0  0  0  0  0  0  0  0  0  0  0  0
    2.1095   -4.0460   -3.3913 H   0  0  0  0  0  0  0  0  0  0  0  0
  1  2  1  0
  1  8  1  0
  1  9  1  0
  1 10  1  0
  2  3  1  0
  2  7  1  0
  3  4  2  0
  3 11  1  0
  4  5  1  0
  5  6  1  0
  5  7  2  0
  6 12  1  0
  6 13  1  0
  7 14  1  0
M  END
> <intraLJ>
0.484     

> <intraEL>
-6.835    

> <intraDihe>
2.003     

> <interLJ>
0.000     

> <interEJ>
0.000     

> <gridLJ>
-4.041    

> <gridEL>
0.000     

> <totalE>
-8.389    

> <LGFE>
-4.041  

> <LE>
-0.577  

> <SMILES>
Cn1cnc(N)c1

> <atom.dprop.GFE>
-0.29 -0.14 -0.22 -1.8 -0.23 -1.2 -0.21 0 0 0 0 0 0 0

> <atom.prop.CLASS>
PRPC GEHC GEHC GENA GEHC GEND GEHC NCLA NCLA NCLA NCLA NCLA NCLA NCLA

$$$$
