7_2
     RDKit          3D

 14 14  0  0  1  0  0  0  0  0999 V2000
  -22.6633    4.0158  -11.2354 O   0  0  0  0  0  0  0  0  0  0  0  0
  -22.3263    5.1906  -11.4574 C   0  0  0  0  0  0  0  0  0  0  0  0
  -22.5598    5.8225  -12.5248 O   0  0  0  0  0  0  0  0  0  0  0  0
  -21.4868    5.9710  -10.4445 C   0  0  0  0  0  0  0  0  0  0  0  0
  -20.1278    5.2788  -10.1881 C   0  0  0  0  0  0  0  0  0  0  0  0
  -20.4841    5.3940   -8.6852 C   0  0  0  0  0  0  0  0  0  0  0  0
  -21.8959    5.6018   -9.0510 N   0  0  0  0  0  0  0  0  0  0  0  0
  -21.4116    7.0266  -10.6639 H   0  0  0  0  0  0  0  0  0  0  0  0
  -20.0876    4.2521  -10.5275 H   0  0  0  0  0  0  0  0  0  0  0  0
  -19.2724    5.8701  -10.4822 H   0  0  0  0  0  0  0  0  0  0  0  0
  -20.0456    6.2711   -8.2275 H   0  0  0  0  0  0  0  0  0  0  0  0
  -20.3068    4.4837   -8.1290 H   0  0  0  0  0  0  0  0  0  0  0  0
  -22.4199    6.3661   -8.5424 H   0  0  0  0  0  0  0  0  0  0  0  0
  -22.4682    4.6875   -9.2011 H   0  0  0  0  0  0  0  0  0  0  0  0
  1  2  2  0
  2  3  1  0
  2  4  1  0
  4  5  1  0
  4  7  1  0
  4  8  1  0
  5  6  1  0
  5  9  1  0
  5 10  1  0
  6  7  1  0
  6 11  1  0
  6 12  1  0
  7 13  1  0
  7 14  1  0
M  CHG  2   3  -1   7   1
M  END
> <intraLJ>
1.581     

> <intraEL>
-1.178    

> <intraDihe>
6.941     

> <interLJ>
0.000     

> <interEJ>
0.000     

> <gridLJ>
-2.504    

> <gridEL>
0.000     

> <totalE>
4.839     

> <LGFE>
-2.504  

> <LE>
-0.358  

> <SMILES>
O=C([O-])C1CC[NH2+]1

> <atom.dprop.GFE>
0 -0.22 0 -0.51 -0.5 -0.51 -0.76 0 0 0 0 0 0 0

> <atom.prop.CLASS>
NCLA ACEC NCLA PRPC PRPC PRPC MAMN NCLA NCLA NCLA NCLA NCLA NCLA NCLA

$$$$
