70_1
     RDKit          3D

 12 12  0  0  0  0  0  0  0  0999 V2000
  -13.0483   -2.5905   22.0251 N   0  0  0  0  0  0  0  0  0  0  0  0
  -13.1861   -1.2815   21.5197 C   0  0  0  0  0  0  0  0  0  0  0  0
  -12.4920   -0.6574   20.5407 C   0  0  0  0  0  0  0  0  0  0  0  0
  -13.0462    0.6120   20.4571 C   0  0  0  0  0  0  0  0  0  0  0  0
  -12.6962    1.6097   19.6365 O   0  0  0  0  0  0  0  0  0  0  0  0
  -14.0158    0.8315   21.2853 N   0  0  0  0  0  0  0  0  0  0  0  0
  -14.1098   -0.3763   21.9570 N   0  0  0  0  0  0  0  0  0  0  0  0
  -13.3183   -2.7236   23.0117 H   0  0  0  0  0  0  0  0  0  0  0  0
  -12.1414   -3.0314   21.7962 H   0  0  0  0  0  0  0  0  0  0  0  0
  -11.7010   -1.0499   19.9603 H   0  0  0  0  0  0  0  0  0  0  0  0
  -13.3365    2.2937   19.9091 H   0  0  0  0  0  0  0  0  0  0  0  0
  -14.8063   -0.5733   22.6955 H   0  0  0  0  0  0  0  0  0  0  0  0
  1  2  1  0
  1  8  1  0
  1  9  1  0
  2  3  2  0
  2  7  1  0
  3  4  1  0
  3 10  1  0
  4  5  1  0
  4  6  2  0
  5 11  1  0
  6  7  1  0
  7 12  1  0
M  END
> <intraLJ>
-0.707    

> <intraEL>
-16.624   

> <intraDihe>
2.009     

> <interLJ>
0.000     

> <interEJ>
0.000     

> <gridLJ>
-2.871    

> <gridEL>
0.000     

> <totalE>
-18.193   

> <LGFE>
-2.871  

> <LE>
-0.410  

> <SMILES>
Nc1cc(O)n[nH]1

> <atom.dprop.GFE>
-0.44 0.0063 -0.052 -0.13 -0.88 -0.95 -0.43 0 0 0 0 0

> <atom.prop.CLASS>
GEND GEHC GEHC GEHC MEOO GENA GEND NCLA NCLA NCLA NCLA NCLA

$$$$
