30_2
     RDKit          3D

 16 16  0  0  1  0  0  0  0  0999 V2000
    7.4919   -7.6145    1.3531 N   0  0  0  0  0  0  0  0  0  0  0  0
    7.4177   -6.7724    2.5777 C   0  0  0  0  0  0  0  0  0  0  0  0
    5.9969   -6.7069    3.1647 C   0  0  0  0  0  0  0  0  0  0  0  0
    5.9415   -5.2865    3.7628 C   0  0  0  0  0  0  0  0  0  0  0  0
    6.8448   -4.5283    2.9191 N   0  0  0  0  0  0  0  0  0  0  0  0
    7.7286   -5.2956    2.3151 C   0  0  0  0  0  0  0  0  0  0  0  0
    8.5627   -4.9242    1.5037 O   0  0  0  0  0  0  0  0  0  0  0  0
    7.3423   -8.5896    1.5587 H   0  0  0  0  0  0  0  0  0  0  0  0
    8.4078   -7.4687    0.9412 H   0  0  0  0  0  0  0  0  0  0  0  0
    6.8194   -7.2776    0.6784 H   0  0  0  0  0  0  0  0  0  0  0  0
    8.1156   -7.1234    3.3415 H   0  0  0  0  0  0  0  0  0  0  0  0
    5.2489   -6.7824    2.3740 H   0  0  0  0  0  0  0  0  0  0  0  0
    5.8324   -7.4680    3.9279 H   0  0  0  0  0  0  0  0  0  0  0  0
    6.3025   -5.2877    4.7948 H   0  0  0  0  0  0  0  0  0  0  0  0
    4.9239   -4.8867    3.7266 H   0  0  0  0  0  0  0  0  0  0  0  0
    6.8514   -3.5184    2.8406 H   0  0  0  0  0  0  0  0  0  0  0  0
  1  2  1  0
  1  8  1  0
  1  9  1  0
  1 10  1  0
  2  3  1  0
  2  6  1  0
  2 11  1  0
  3  4  1  0
  3 12  1  0
  3 13  1  0
  4  5  1  0
  4 14  1  0
  4 15  1  0
  5  6  1  0
  5 16  1  0
  6  7  2  0
M  CHG  1   1   1
M  END
> <intraLJ>
-0.328    

> <intraEL>
0.050     

> <intraDihe>
6.834     

> <interLJ>
0.000     

> <interEJ>
0.000     

> <gridLJ>
-4.091    

> <gridEL>
0.000     

> <totalE>
2.465     

> <LGFE>
-4.091  

> <LE>
-0.584  

> <SMILES>
[NH3+]C1CCNC1=O

> <atom.dprop.GFE>
0.035 -0.47 -0.47 -0.47 -1.1 -0.4 -1.2 0 0 0 0 0 0 0 0 0

> <atom.prop.CLASS>
MAMN PRPC PRPC PRPC GEND GEHC GENA NCLA NCLA NCLA NCLA NCLA NCLA NCLA NCLA NCLA

$$$$
