27_1
     RDKit          3D

 11 11  0  0  0  0  0  0  0  0999 V2000
   -9.0406   11.1326    2.3809 N   0  0  0  0  0  0  0  0  0  0  0  0
   -8.6337   10.5736    3.5676 C   0  0  0  0  0  0  0  0  0  0  0  0
   -9.1393    9.4990    4.0845 N   0  0  0  0  0  0  0  0  0  0  0  0
   -8.4348    9.3250    5.2447 C   0  0  0  0  0  0  0  0  0  0  0  0
   -7.5129   10.3031    5.4070 C   0  0  0  0  0  0  0  0  0  0  0  0
   -7.6477   11.1053    4.3269 N   0  0  0  0  0  0  0  0  0  0  0  0
   -8.2942   11.5615    1.8225 H   0  0  0  0  0  0  0  0  0  0  0  0
   -9.6292   10.4701    1.8563 H   0  0  0  0  0  0  0  0  0  0  0  0
   -8.6001    8.5239    5.9210 H   0  0  0  0  0  0  0  0  0  0  0  0
   -6.8114   10.4748    6.1818 H   0  0  0  0  0  0  0  0  0  0  0  0
   -7.1341   11.9695    4.1061 H   0  0  0  0  0  0  0  0  0  0  0  0
  1  2  1  0
  1  7  1  0
  1  8  1  0
  2  3  2  0
  2  6  1  0
  3  4  1  0
  4  5  2  0
  4  9  1  0
  5  6  1  0
  5 10  1  0
  6 11  1  0
M  END
> <intraLJ>
-0.193    

> <intraEL>
-10.326   

> <intraDihe>
2.842     

> <interLJ>
0.000     

> <interEJ>
0.000     

> <gridLJ>
-2.201    

> <gridEL>
0.000     

> <totalE>
-9.877    

> <LGFE>
-2.201  

> <LE>
-0.367  

> <SMILES>
Nc1ncc[nH]1

> <atom.dprop.GFE>
-1.3 -0.19 -0.47 -0.046 0.18 -0.42 0 0 0 0 0

> <atom.prop.CLASS>
GEND GEHC GENA GEHC GEHC GEND NCLA NCLA NCLA NCLA NCLA

$$$$
