74_1
     RDKit          3D

 12 12  0  0  0  0  0  0  0  0999 V2000
  -39.2186    6.2278   22.3494 O   0  0  0  0  0  0  0  0  0  0  0  0
  -39.4771    6.4553   21.0717 C   0  0  0  0  0  0  0  0  0  0  0  0
  -39.9009    5.4466   20.2138 C   0  0  0  0  0  0  0  0  0  0  0  0
  -40.1494    5.7714   18.8898 C   0  0  0  0  0  0  0  0  0  0  0  0
  -39.9570    7.0941   18.5020 C   0  0  0  0  0  0  0  0  0  0  0  0
  -39.5291    8.0361   19.4380 C   0  0  0  0  0  0  0  0  0  0  0  0
  -39.2921    7.7154   20.7126 N   0  0  0  0  0  0  0  0  0  0  0  0
  -38.9538    7.1184   22.6486 H   0  0  0  0  0  0  0  0  0  0  0  0
  -40.0273    4.4605   20.5757 H   0  0  0  0  0  0  0  0  0  0  0  0
  -40.4737    5.0379   18.1962 H   0  0  0  0  0  0  0  0  0  0  0  0
  -40.1347    7.3869   17.4998 H   0  0  0  0  0  0  0  0  0  0  0  0
  -39.3827    9.0454   19.1450 H   0  0  0  0  0  0  0  0  0  0  0  0
  1  2  1  0
  1  8  1  0
  2  3  2  0
  2  7  1  0
  3  4  1  0
  3  9  1  0
  4  5  2  0
  4 10  1  0
  5  6  1  0
  5 11  1  0
  6  7  2  0
  6 12  1  0
M  END
> <intraLJ>
13.107    

> <intraEL>
-5.244    

> <intraDihe>
0.000     

> <interLJ>
0.000     

> <interEJ>
0.000     

> <gridLJ>
-2.675    

> <gridEL>
0.000     

> <totalE>
5.188     

> <LGFE>
-2.675  

> <LE>
-0.382  

> <SMILES>
Oc1ccccn1

> <atom.dprop.GFE>
-0.65 -0.26 -0.29 -0.25 -0.27 -0.2 -0.75 0 0 0 0 0

> <atom.prop.CLASS>
MEOO GEHC BENC BENC BENC GEHC GENA NCLA NCLA NCLA NCLA NCLA

$$$$
