56
     RDKit          3D

 13 12  0  0  0  0  0  0  0  0999 V2000
   19.4755   14.9895   -4.7834 C   0  0  0  0  0  0  0  0  0  0  0  0
   20.9664   14.7908   -4.7076 C   0  0  0  0  0  0  0  0  0  0  0  0
   21.7180   15.3175   -5.4977 O   0  0  0  0  0  0  0  0  0  0  0  0
   21.4317   13.9867   -3.7012 N   0  0  0  0  0  0  0  0  0  0  0  0
   22.7172   13.6430   -3.4049 C   0  0  0  0  0  0  0  0  0  0  0  0
   23.6172   14.0882   -4.0859 O   0  0  0  0  0  0  0  0  0  0  0  0
   22.9672   12.8262   -2.3794 N   0  0  0  0  0  0  0  0  0  0  0  0
   18.9993   14.4271   -3.9942 H   0  0  0  0  0  0  0  0  0  0  0  0
   19.1718   14.6432   -5.7605 H   0  0  0  0  0  0  0  0  0  0  0  0
   19.3044   16.0520   -4.6781 H   0  0  0  0  0  0  0  0  0  0  0  0
   20.7499   13.5681   -3.0655 H   0  0  0  0  0  0  0  0  0  0  0  0
   23.9352   12.5679   -2.1675 H   0  0  0  0  0  0  0  0  0  0  0  0
   22.1655   12.4702   -1.8312 H   0  0  0  0  0  0  0  0  0  0  0  0
  1  2  1  0
  1  8  1  0
  1  9  1  0
  1 10  1  0
  2  3  2  0
  2  4  1  0
  4  5  1  0
  4 11  1  0
  5  6  2  0
  5  7  1  0
  7 12  1  0
  7 13  1  0
M  END
> <intraLJ>
1.000     

> <intraEL>
-10.160   

> <intraDihe>
0.002     

> <interLJ>
0.000     

> <interEJ>
0.000     

> <gridLJ>
-3.311    

> <gridEL>
0.000     

> <totalE>
-12.469   

> <LGFE>
-3.311  

> <LE>
-0.473  

> <SMILES>
CC(=O)NC(N)=O

> <atom.dprop.GFE>
-0.67 0 -0.98 -0.42 0 -0.68 -0.57 0 0 0 0 0 0

> <atom.prop.CLASS>
PRPC NCLA GENA GEND NCLA GENA GEND NCLA NCLA NCLA NCLA NCLA NCLA

$$$$
