2_1
     RDKit          3D

 15 15  0  0  0  0  0  0  0  0999 V2000
   20.5003    3.7343  -50.3084 C   0  0  0  0  0  0  0  0  0  0  0  0
   20.3378    2.6499  -49.2272 C   0  0  0  0  0  0  0  0  0  0  0  0
   18.9689    2.2670  -49.0847 O   0  0  0  0  0  0  0  0  0  0  0  0
   18.1427    3.3824  -48.7468 C   0  0  0  0  0  0  0  0  0  0  0  0
   18.2413    4.4887  -49.8142 C   0  0  0  0  0  0  0  0  0  0  0  0
   19.6484    4.9195  -50.0246 N   0  0  0  0  0  0  0  0  0  0  0  0
   20.2171    3.2983  -51.2687 H   0  0  0  0  0  0  0  0  0  0  0  0
   21.5476    4.0349  -50.3588 H   0  0  0  0  0  0  0  0  0  0  0  0
   20.7110    3.0379  -48.2787 H   0  0  0  0  0  0  0  0  0  0  0  0
   20.9282    1.7758  -49.5032 H   0  0  0  0  0  0  0  0  0  0  0  0
   18.4529    3.7920  -47.7847 H   0  0  0  0  0  0  0  0  0  0  0  0
   17.1067    3.0523  -48.6679 H   0  0  0  0  0  0  0  0  0  0  0  0
   17.6361    5.3409  -49.5025 H   0  0  0  0  0  0  0  0  0  0  0  0
   17.8328    4.0957  -50.7476 H   0  0  0  0  0  0  0  0  0  0  0  0
   19.7112    5.5993  -50.7737 H   0  0  0  0  0  0  0  0  0  0  0  0
  1  2  1  0
  1  6  1  0
  1  7  1  0
  1  8  1  0
  2  3  1  0
  2  9  1  0
  2 10  1  0
  3  4  1  0
  4  5  1  0
  4 11  1  0
  4 12  1  0
  5  6  1  0
  5 13  1  0
  5 14  1  0
  6 15  1  0
M  END
> <intraLJ>
0.516     

> <intraEL>
2.915     

> <intraDihe>
4.772     

> <interLJ>
0.000     

> <interEJ>
0.000     

> <gridLJ>
-2.590    

> <gridEL>
0.000     

> <totalE>
5.613     

> <LGFE>
-2.590  

> <LE>
-0.432  

> <SMILES>
C1COCCN1

> <atom.dprop.GFE>
-0.33 -0.37 -0.61 -0.41 -0.38 -0.5 0 0 0 0 0 0 0 0 0

> <atom.prop.CLASS>
PRPC PRPC GENA PRPC PRPC GEND NCLA NCLA NCLA NCLA NCLA NCLA NCLA NCLA NCLA

$$$$
