77
     RDKit          3D

 12 12  0  0  0  0  0  0  0  0999 V2000
    6.2920   14.3921   -0.5224 N   0  0  0  0  0  0  0  0  0  0  0  0
    6.8093   15.5403    0.1055 C   0  0  0  0  0  0  0  0  0  0  0  0
    5.9862   16.6265    0.3997 C   0  0  0  0  0  0  0  0  0  0  0  0
    6.4959   17.7065    0.9753 N   0  0  0  0  0  0  0  0  0  0  0  0
    7.7976   17.7350    1.2739 C   0  0  0  0  0  0  0  0  0  0  0  0
    8.6293   16.7209    1.0226 N   0  0  0  0  0  0  0  0  0  0  0  0
    8.1580   15.6235    0.4474 C   0  0  0  0  0  0  0  0  0  0  0  0
    6.9838   13.8037   -1.0123 H   0  0  0  0  0  0  0  0  0  0  0  0
    5.4136   14.5285   -1.0464 H   0  0  0  0  0  0  0  0  0  0  0  0
    4.9523   16.6031    0.1698 H   0  0  0  0  0  0  0  0  0  0  0  0
    8.1896   18.6074    1.7341 H   0  0  0  0  0  0  0  0  0  0  0  0
    8.8181   14.8173    0.2548 H   0  0  0  0  0  0  0  0  0  0  0  0
  1  2  1  0
  1  8  1  0
  1  9  1  0
  2  3  2  0
  2  7  1  0
  3  4  1  0
  3 10  1  0
  4  5  2  0
  5  6  1  0
  5 11  1  0
  6  7  2  0
  7 12  1  0
M  END
> <intraLJ>
18.269    

> <intraEL>
2.751     

> <intraDihe>
1.494     

> <interLJ>
0.000     

> <interEJ>
0.000     

> <gridLJ>
-2.088    

> <gridEL>
0.000     

> <totalE>
20.426    

> <LGFE>
-2.088  

> <LE>
-0.298  

> <SMILES>
Nc1cncnc1

> <atom.dprop.GFE>
-0.72 -0.069 -0.12 -0.42 -0.095 -0.6 -0.062 0 0 0 0 0

> <atom.prop.CLASS>
GEND BENC BENC GENA GEHC GENA BENC NCLA NCLA NCLA NCLA NCLA

$$$$
