6
     RDKit          3D

 10 10  0  0  0  0  0  0  0  0999 V2000
  -15.7178    9.0606   -3.5908 N   0  0  0  0  0  0  0  0  0  0  0  0
  -15.8090    9.6911   -4.8173 C   0  0  0  0  0  0  0  0  0  0  0  0
  -16.6081   10.7811   -5.1285 C   0  0  0  0  0  0  0  0  0  0  0  0
  -16.3529   11.0364   -6.4182 C   0  0  0  0  0  0  0  0  0  0  0  0
  -15.4462   10.1425   -6.8444 O   0  0  0  0  0  0  0  0  0  0  0  0
  -15.1153    9.3048   -5.8268 N   0  0  0  0  0  0  0  0  0  0  0  0
  -14.8455    8.5178   -3.5444 H   0  0  0  0  0  0  0  0  0  0  0  0
  -15.8410    9.7104   -2.8059 H   0  0  0  0  0  0  0  0  0  0  0  0
  -17.2777   11.2928   -4.4905 H   0  0  0  0  0  0  0  0  0  0  0  0
  -16.7375   11.7768   -7.0722 H   0  0  0  0  0  0  0  0  0  0  0  0
  1  2  1  0
  1  7  1  0
  1  8  1  0
  2  3  1  0
  2  6  2  0
  3  4  2  0
  3  9  1  0
  4  5  1  0
  4 10  1  0
  5  6  1  0
M  END
> <intraLJ>
-0.275    

> <intraEL>
-7.962    

> <intraDihe>
1.578     

> <interLJ>
0.000     

> <interEJ>
0.000     

> <gridLJ>
-3.885    

> <gridEL>
0.000     

> <totalE>
-10.544   

> <LGFE>
-3.885  

> <LE>
-0.647  

> <SMILES>
Nc1ccon1

> <atom.dprop.GFE>
-1.1 -0.086 -0.16 -0.26 -1.3 -0.94 0 0 0 0

> <atom.prop.CLASS>
GEND GEHC GEHC GEHC GENA GENA NCLA NCLA NCLA NCLA

$$$$
