59_2
     RDKit          3D

  9  8  0  0  0  0  0  0  0  0999 V2000
   -4.3382    9.2511    6.3021 C   0  0  0  0  0  0  0  0  0  0  0  0
   -4.4710   10.5906    5.5937 C   0  0  0  0  0  0  0  0  0  0  0  0
   -4.1458   10.6018    4.4120 O   0  0  0  0  0  0  0  0  0  0  0  0
   -4.9717   11.7803    6.3417 C   0  0  0  0  0  0  0  0  0  0  0  0
   -4.1422   12.5025    6.9863 O   0  0  0  0  0  0  0  0  0  0  0  0
   -6.2072   12.0903    6.3514 O   0  0  0  0  0  0  0  0  0  0  0  0
   -5.3238    8.9934    6.6623 H   0  0  0  0  0  0  0  0  0  0  0  0
   -3.6556    9.4052    7.1263 H   0  0  0  0  0  0  0  0  0  0  0  0
   -3.9613    8.5271    5.5930 H   0  0  0  0  0  0  0  0  0  0  0  0
  1  2  1  0
  1  7  1  0
  1  8  1  0
  1  9  1  0
  2  3  2  0
  2  4  1  0
  4  5  2  0
  4  6  1  0
M  CHG  1   6  -1
M  END
> <intraLJ>
-0.400    

> <intraEL>
6.230     

> <intraDihe>
1.260     

> <interLJ>
0.000     

> <interEJ>
0.000     

> <gridLJ>
-2.375    

> <gridEL>
0.000     

> <totalE>
4.715     

> <LGFE>
-2.375  

> <LE>
-0.396  

> <SMILES>
CC(=O)C(=O)[O-]

> <atom.dprop.GFE>
0.093 0 -1.2 -1.3 0 0 0 0 0

> <atom.prop.CLASS>
PRPC NCLA GENA ACEC NCLA NCLA NCLA NCLA NCLA

$$$$
