50_1
     RDKit          3D

 12 11  0  0  1  0  0  0  0  0999 V2000
  -15.2058    7.2674   -0.6577 C   0  0  0  0  0  0  0  0  0  0  0  0
  -15.0962    7.6460   -2.1341 C   0  0  0  0  0  0  0  0  0  0  0  0
  -15.4781    9.0286   -2.2188 N   0  0  0  0  0  0  0  0  0  0  0  0
  -16.1379    6.9144   -2.8829 C   0  0  0  0  0  0  0  0  0  0  0  0
  -16.9788    6.3234   -3.4869 C   0  0  0  0  0  0  0  0  0  0  0  0
  -14.9670    6.2082   -0.5572 H   0  0  0  0  0  0  0  0  0  0  0  0
  -16.2185    7.4652   -0.3027 H   0  0  0  0  0  0  0  0  0  0  0  0
  -14.4855    7.8690   -0.1039 H   0  0  0  0  0  0  0  0  0  0  0  0
  -14.1051    7.4611   -2.5314 H   0  0  0  0  0  0  0  0  0  0  0  0
  -16.4145    9.0912   -1.8486 H   0  0  0  0  0  0  0  0  0  0  0  0
  -15.5241    9.2610   -3.1994 H   0  0  0  0  0  0  0  0  0  0  0  0
  -17.7107    5.8104   -4.0124 H   0  0  0  0  0  0  0  0  0  0  0  0
  1  2  1  0
  1  6  1  0
  1  7  1  0
  1  8  1  0
  2  3  1  0
  2  4  1  0
  2  9  1  0
  3 10  1  0
  3 11  1  0
  4  5  3  0
  5 12  1  0
M  END
> <intraLJ>
0.882     

> <intraEL>
-1.894    

> <intraDihe>
0.827     

> <interLJ>
0.000     

> <interEJ>
0.000     

> <gridLJ>
-3.636    

> <gridEL>
0.000     

> <totalE>
-3.821    

> <LGFE>
-3.636  

> <LE>
-0.727  

> <SMILES>
C#CC(C)N

> <atom.dprop.GFE>
-0.51 -0.57 -1.4 -0.59 -0.59 0 0 0 0 0 0 0

> <atom.prop.CLASS>
PRPC PRPC GEND PRPC PRPC NCLA NCLA NCLA NCLA NCLA NCLA NCLA

$$$$
