51_1
     RDKit          3D

 12 12  0  0  0  0  0  0  0  0999 V2000
  -14.8941    5.7427  -18.2817 O   0  0  0  0  0  0  0  0  0  0  0  0
  -13.7671    5.5555  -18.7051 C   0  0  0  0  0  0  0  0  0  0  0  0
  -12.9972    4.2773  -18.7738 C   0  0  0  0  0  0  0  0  0  0  0  0
  -11.5516    4.8112  -18.9099 C   0  0  0  0  0  0  0  0  0  0  0  0
  -11.6610    6.1170  -19.5961 N   0  0  0  0  0  0  0  0  0  0  0  0
  -13.0213    6.5378  -19.2023 N   0  0  0  0  0  0  0  0  0  0  0  0
  -13.2833    3.7589  -19.6767 H   0  0  0  0  0  0  0  0  0  0  0  0
  -13.1230    3.7088  -17.8638 H   0  0  0  0  0  0  0  0  0  0  0  0
  -10.9227    4.1139  -19.4669 H   0  0  0  0  0  0  0  0  0  0  0  0
  -11.1291    4.9687  -17.9156 H   0  0  0  0  0  0  0  0  0  0  0  0
  -11.6962    5.9019  -20.6102 H   0  0  0  0  0  0  0  0  0  0  0  0
  -13.3624    7.5147  -19.2067 H   0  0  0  0  0  0  0  0  0  0  0  0
  1  2  2  0
  2  3  1  0
  2  6  1  0
  3  4  1  0
  3  7  1  0
  3  8  1  0
  4  5  1  0
  4  9  1  0
  4 10  1  0
  5  6  1  0
  5 11  1  0
  6 12  1  0
M  END
> <intraLJ>
-0.445    

> <intraEL>
-0.094    

> <intraDihe>
6.248     

> <interLJ>
0.000     

> <interEJ>
0.000     

> <gridLJ>
-2.143    

> <gridEL>
0.000     

> <totalE>
3.567     

> <LGFE>
-2.143  

> <LE>
-0.357  

> <SMILES>
O=C1CCNN1

> <atom.dprop.GFE>
-1 -0.14 -0.17 -0.16 -0.27 -0.39 0 0 0 0 0 0

> <atom.prop.CLASS>
GENA GEHC PRPC PRPC GEND GEND NCLA NCLA NCLA NCLA NCLA NCLA

$$$$
