39_3
     RDKit          3D

 11 11  0  0  0  0  0  0  0  0999 V2000
  -23.9860    2.7195   21.5212 O   0  0  0  0  0  0  0  0  0  0  0  0
  -22.8575    2.2683   22.0794 C   0  0  0  0  0  0  0  0  0  0  0  0
  -22.0020    1.4260   21.3931 C   0  0  0  0  0  0  0  0  0  0  0  0
  -20.8547    1.0101   22.0559 C   0  0  0  0  0  0  0  0  0  0  0  0
  -20.6434    1.4634   23.3497 C   0  0  0  0  0  0  0  0  0  0  0  0
  -21.5210    2.2835   23.9552 N   0  0  0  0  0  0  0  0  0  0  0  0
  -22.6244    2.6880   23.3278 N   0  0  0  0  0  0  0  0  0  0  0  0
  -24.3842    3.2804   22.2137 H   0  0  0  0  0  0  0  0  0  0  0  0
  -22.2233    1.1170   20.4061 H   0  0  0  0  0  0  0  0  0  0  0  0
  -20.1583    0.3641   21.5876 H   0  0  0  0  0  0  0  0  0  0  0  0
  -19.7816    1.1727   23.8940 H   0  0  0  0  0  0  0  0  0  0  0  0
  1  2  1  0
  1  8  1  0
  2  3  2  0
  2  7  1  0
  3  4  1  0
  3  9  1  0
  4  5  2  0
  4 10  1  0
  5  6  1  0
  5 11  1  0
  6  7  2  0
M  END
> <intraLJ>
16.308    

> <intraEL>
-0.658    

> <intraDihe>
0.000     

> <interLJ>
0.000     

> <interEJ>
0.000     

> <gridLJ>
-5.439    

> <gridEL>
0.000     

> <totalE>
10.211    

> <LGFE>
-5.439  

> <LE>
-0.777  

> <SMILES>
Oc1cccnn1

> <atom.dprop.GFE>
-1.3 -0.1 -0.12 -0.15 -0.12 -1.7 -1.9 0 0 0 0

> <atom.prop.CLASS>
MEOO BENC BENC BENC BENC GENA GENA NCLA NCLA NCLA NCLA

$$$$
