41
     RDKit          3D

  8  8  0  0  0  0  0  0  0  0999 V2000
  -22.2592    5.9007   -4.0104 C   0  0  0  0  0  0  0  0  0  0  0  0
  -21.3999    6.2873   -4.9703 C   0  0  0  0  0  0  0  0  0  0  0  0
  -20.6912    5.1944   -5.2499 N   0  0  0  0  0  0  0  0  0  0  0  0
  -21.0961    4.1668   -4.4919 N   0  0  0  0  0  0  0  0  0  0  0  0
  -22.0681    4.5988   -3.7212 N   0  0  0  0  0  0  0  0  0  0  0  0
  -22.9868    6.5102   -3.5376 H   0  0  0  0  0  0  0  0  0  0  0  0
  -21.2492    7.2176   -5.4516 H   0  0  0  0  0  0  0  0  0  0  0  0
  -19.9286    5.1145   -5.9475 H   0  0  0  0  0  0  0  0  0  0  0  0
  1  2  2  0
  1  5  1  0
  1  6  1  0
  2  3  1  0
  2  7  1  0
  3  4  1  0
  3  8  1  0
  4  5  2  0
M  END
> <intraLJ>
-0.290    

> <intraEL>
-0.628    

> <intraDihe>
0.000     

> <interLJ>
0.000     

> <interEJ>
0.000     

> <gridLJ>
-3.629    

> <gridEL>
0.000     

> <totalE>
-4.547    

> <LGFE>
-3.629  

> <LE>
-0.726  

> <SMILES>
c1c[nH]nn1

> <atom.dprop.GFE>
-0.16 -0.19 -0.81 -1.2 -1.2 0 0 0

> <atom.prop.CLASS>
GEHC GEHC GEND GENA GENA NCLA NCLA NCLA

$$$$
