31_1
     RDKit          3D

 15 15  0  0  0  0  0  0  0  0999 V2000
  -17.0748    6.5289   -1.0566 O   0  0  0  0  0  0  0  0  0  0  0  0
  -17.7542    6.5356   -2.0737 C   0  0  0  0  0  0  0  0  0  0  0  0
  -18.2086    5.2131   -2.7475 C   0  0  0  0  0  0  0  0  0  0  0  0
  -19.2967    5.3437   -3.7764 N   0  0  0  0  0  0  0  0  0  0  0  0
  -19.0782    6.5704   -4.5882 C   0  0  0  0  0  0  0  0  0  0  0  0
  -19.0741    7.8215   -3.6918 C   0  0  0  0  0  0  0  0  0  0  0  0
  -18.0483    7.6981   -2.6568 N   0  0  0  0  0  0  0  0  0  0  0  0
  -18.5263    4.5235   -1.9645 H   0  0  0  0  0  0  0  0  0  0  0  0
  -17.3292    4.7873   -3.2295 H   0  0  0  0  0  0  0  0  0  0  0  0
  -20.1905    5.4057   -3.3035 H   0  0  0  0  0  0  0  0  0  0  0  0
  -19.8707    6.6650   -5.3332 H   0  0  0  0  0  0  0  0  0  0  0  0
  -18.1218    6.5024   -5.1115 H   0  0  0  0  0  0  0  0  0  0  0  0
  -20.0548    7.9312   -3.2263 H   0  0  0  0  0  0  0  0  0  0  0  0
  -18.8747    8.7006   -4.3071 H   0  0  0  0  0  0  0  0  0  0  0  0
  -17.6856    8.5202   -2.2033 H   0  0  0  0  0  0  0  0  0  0  0  0
  1  2  2  0
  2  3  1  0
  2  7  1  0
  3  4  1  0
  3  8  1  0
  3  9  1  0
  4  5  1  0
  4 10  1  0
  5  6  1  0
  5 11  1  0
  5 12  1  0
  6  7  1  0
  6 13  1  0
  6 14  1  0
  7 15  1  0
M  END
> <intraLJ>
0.615     

> <intraEL>
3.232     

> <intraDihe>
15.833    

> <interLJ>
0.000     

> <interEJ>
0.000     

> <gridLJ>
-4.109    

> <gridEL>
0.000     

> <totalE>
15.571    

> <LGFE>
-4.109  

> <LE>
-0.587  

> <SMILES>
O=C1CNCCN1

> <atom.dprop.GFE>
-1.9 0 -0.17 -0.75 -0.31 -0.26 -0.74 0 0 0 0 0 0 0 0

> <atom.prop.CLASS>
GENA NCLA PRPC GEND PRPC PRPC GEND NCLA NCLA NCLA NCLA NCLA NCLA NCLA NCLA

$$$$
