25
     RDKit          3D

 12 12  0  0  0  0  0  0  0  0999 V2000
   17.7835   13.1565  -45.6676 O   0  0  0  0  0  0  0  0  0  0  0  0
   17.0189   12.4333  -46.2526 C   0  0  0  0  0  0  0  0  0  0  0  0
   15.9329   12.8199  -47.2250 C   0  0  0  0  0  0  0  0  0  0  0  0
   15.3259   11.4446  -47.6243 C   0  0  0  0  0  0  0  0  0  0  0  0
   16.1447   10.4713  -46.8149 C   0  0  0  0  0  0  0  0  0  0  0  0
   16.0494    9.2711  -46.7762 O   0  0  0  0  0  0  0  0  0  0  0  0
   17.0676   11.1061  -46.0793 N   0  0  0  0  0  0  0  0  0  0  0  0
   16.3842   13.3029  -48.0797 H   0  0  0  0  0  0  0  0  0  0  0  0
   15.2018   13.4247  -46.7068 H   0  0  0  0  0  0  0  0  0  0  0  0
   15.4859   11.2454  -48.6747 H   0  0  0  0  0  0  0  0  0  0  0  0
   14.2927   11.3758  -47.3119 H   0  0  0  0  0  0  0  0  0  0  0  0
   17.7317   10.6322  -45.4596 H   0  0  0  0  0  0  0  0  0  0  0  0
  1  2  2  0
  2  3  1  0
  2  7  1  0
  3  4  1  0
  3  8  1  0
  3  9  1  0
  4  5  1  0
  4 10  1  0
  4 11  1  0
  5  6  2  0
  5  7  1  0
  7 12  1  0
M  END
> <intraLJ>
-0.774    

> <intraEL>
-6.724    

> <intraDihe>
1.508     

> <interLJ>
0.000     

> <interEJ>
0.000     

> <gridLJ>
-2.108    

> <gridEL>
0.000     

> <totalE>
-8.098    

> <LGFE>
-2.108  

> <LE>
-0.301  

> <SMILES>
O=C1CCC(=O)N1

> <atom.dprop.GFE>
-0.59 -0.17 -0.27 -0.22 -0.076 -0.31 -0.47 0 0 0 0 0

> <atom.prop.CLASS>
GENA GEHC PRPC PRPC GEHC GENA GEND NCLA NCLA NCLA NCLA NCLA

$$$$
