26_1
     RDKit          3D

 13 13  0  0  0  0  0  0  0  0999 V2000
    0.9567   -6.6217    0.8951 O   0  0  0  0  0  0  0  0  0  0  0  0
   -0.3014   -7.0446    1.4420 C   0  0  0  0  0  0  0  0  0  0  0  0
   -1.0624   -7.6141    0.2510 C   0  0  0  0  0  0  0  0  0  0  0  0
   -1.3656   -8.9577    0.0570 C   0  0  0  0  0  0  0  0  0  0  0  0
   -2.0419   -9.0451   -1.1096 C   0  0  0  0  0  0  0  0  0  0  0  0
   -2.1274   -7.7826   -1.5763 N   0  0  0  0  0  0  0  0  0  0  0  0
   -1.5257   -6.8912   -0.7450 N   0  0  0  0  0  0  0  0  0  0  0  0
    0.8994   -6.8459   -0.0613 H   0  0  0  0  0  0  0  0  0  0  0  0
   -0.8350   -6.1886    1.8308 H   0  0  0  0  0  0  0  0  0  0  0  0
   -0.1369   -7.8289    2.1687 H   0  0  0  0  0  0  0  0  0  0  0  0
   -1.1155   -9.7638    0.6981 H   0  0  0  0  0  0  0  0  0  0  0  0
   -2.4547   -9.8731   -1.6256 H   0  0  0  0  0  0  0  0  0  0  0  0
   -2.5915   -7.5024   -2.4615 H   0  0  0  0  0  0  0  0  0  0  0  0
  1  2  1  0
  1  8  1  0
  2  3  1  0
  2  9  1  0
  2 10  1  0
  3  4  1  0
  3  7  2  0
  4  5  2  0
  4 11  1  0
  5  6  1  0
  5 12  1  0
  6  7  1  0
  6 13  1  0
M  END
> <intraLJ>
0.288     

> <intraEL>
0.187     

> <intraDihe>
6.118     

> <interLJ>
0.000     

> <interEJ>
0.000     

> <gridLJ>
-2.122    

> <gridEL>
0.000     

> <totalE>
4.471     

> <LGFE>
-2.122  

> <LE>
-0.303  

> <SMILES>
OCc1cc[nH]n1

> <atom.dprop.GFE>
-0.77 -0.12 -0.055 -0.044 -0.015 -0.8 -0.32 0 0 0 0 0 0

> <atom.prop.CLASS>
MEOO PRPC GEHC GEHC GEHC GEND GENA NCLA NCLA NCLA NCLA NCLA NCLA

$$$$
