23_1
     RDKit          3D

 11 11  0  0  0  0  0  0  0  0999 V2000
    9.8964   12.4209  -36.5163 O   0  0  0  0  0  0  0  0  0  0  0  0
    9.7298   13.5721  -35.9159 C   0  0  0  0  0  0  0  0  0  0  0  0
    8.9911   13.6337  -34.8177 N   0  0  0  0  0  0  0  0  0  0  0  0
    8.8498   14.8164  -34.2438 C   0  0  0  0  0  0  0  0  0  0  0  0
    9.4631   15.9329  -34.7938 C   0  0  0  0  0  0  0  0  0  0  0  0
   10.2198   15.7796  -35.9455 C   0  0  0  0  0  0  0  0  0  0  0  0
   10.3481   14.5846  -36.5042 N   0  0  0  0  0  0  0  0  0  0  0  0
   10.4619   12.6937  -37.2578 H   0  0  0  0  0  0  0  0  0  0  0  0
    8.2625   14.8910  -33.3635 H   0  0  0  0  0  0  0  0  0  0  0  0
    9.3551   16.8828  -34.3408 H   0  0  0  0  0  0  0  0  0  0  0  0
   10.7050   16.6105  -36.3951 H   0  0  0  0  0  0  0  0  0  0  0  0
  1  2  1  0
  1  8  1  0
  2  3  2  0
  2  7  1  0
  3  4  1  0
  4  5  2  0
  4  9  1  0
  5  6  1  0
  5 10  1  0
  6  7  2  0
  6 11  1  0
M  END
> <intraLJ>
20.130    

> <intraEL>
-14.212   

> <intraDihe>
6.700     

> <interLJ>
0.000     

> <interEJ>
0.000     

> <gridLJ>
-3.226    

> <gridEL>
0.000     

> <totalE>
9.392     

> <LGFE>
-3.226  

> <LE>
-0.461  

> <SMILES>
Oc1ncccn1

> <atom.dprop.GFE>
-1.5 -0.019 -0.95 -0.03 -0.048 -0.025 -0.67 0 0 0 0

> <atom.prop.CLASS>
MEOO GEHC GENA BENC BENC BENC GENA NCLA NCLA NCLA NCLA

$$$$
