30_2
     RDKit          3D

 16 16  0  0  1  0  0  0  0  0999 V2000
  -43.0865   -2.7073   25.5476 N   0  0  0  0  0  0  0  0  0  0  0  0
  -41.7362   -2.8412   26.1583 C   0  0  0  0  0  0  0  0  0  0  0  0
  -41.0639   -1.4802   26.4102 C   0  0  0  0  0  0  0  0  0  0  0  0
  -39.5690   -1.7956   26.2002 C   0  0  0  0  0  0  0  0  0  0  0  0
  -39.5837   -2.8808   25.2385 N   0  0  0  0  0  0  0  0  0  0  0  0
  -40.7252   -3.5377   25.2420 C   0  0  0  0  0  0  0  0  0  0  0  0
  -41.0264   -4.4528   24.4911 O   0  0  0  0  0  0  0  0  0  0  0  0
  -43.7494   -2.3005   26.1884 H   0  0  0  0  0  0  0  0  0  0  0  0
  -43.3826   -3.6351   25.2624 H   0  0  0  0  0  0  0  0  0  0  0  0
  -43.0145   -2.1590   24.7019 H   0  0  0  0  0  0  0  0  0  0  0  0
  -41.7787   -3.4088   27.0907 H   0  0  0  0  0  0  0  0  0  0  0  0
  -41.3758   -0.7512   25.6607 H   0  0  0  0  0  0  0  0  0  0  0  0
  -41.2556   -1.1076   27.4168 H   0  0  0  0  0  0  0  0  0  0  0  0
  -39.1094   -2.1276   27.1351 H   0  0  0  0  0  0  0  0  0  0  0  0
  -39.0357   -0.9218   25.8148 H   0  0  0  0  0  0  0  0  0  0  0  0
  -38.7943   -3.1570   24.6669 H   0  0  0  0  0  0  0  0  0  0  0  0
  1  2  1  0
  1  8  1  0
  1  9  1  0
  1 10  1  0
  2  3  1  0
  2  6  1  0
  2 11  1  0
  3  4  1  0
  3 12  1  0
  3 13  1  0
  4  5  1  0
  4 14  1  0
  4 15  1  0
  5  6  1  0
  5 16  1  0
  6  7  2  0
M  CHG  1   1   1
M  END
> <intraLJ>
-0.328    

> <intraEL>
0.050     

> <intraDihe>
6.834     

> <interLJ>
0.000     

> <interEJ>
0.000     

> <gridLJ>
-2.507    

> <gridEL>
0.000     

> <totalE>
4.048     

> <LGFE>
-2.507  

> <LE>
-0.358  

> <SMILES>
[NH3+]C1CCNC1=O

> <atom.dprop.GFE>
-0.24 -0.24 -0.41 -0.42 -0.58 -0.16 -0.47 0 0 0 0 0 0 0 0 0

> <atom.prop.CLASS>
MAMN PRPC PRPC PRPC GEND GEHC GENA NCLA NCLA NCLA NCLA NCLA NCLA NCLA NCLA NCLA

$$$$
