27_1
     RDKit          3D

 11 11  0  0  0  0  0  0  0  0999 V2000
   -9.7875   -6.4581   11.7390 N   0  0  0  0  0  0  0  0  0  0  0  0
   -9.2853   -6.7931   10.5053 C   0  0  0  0  0  0  0  0  0  0  0  0
   -9.6964   -6.2912    9.3843 N   0  0  0  0  0  0  0  0  0  0  0  0
   -8.9225   -6.9091    8.4398 C   0  0  0  0  0  0  0  0  0  0  0  0
   -8.0547   -7.7768    9.0116 C   0  0  0  0  0  0  0  0  0  0  0  0
   -8.2950   -7.7004   10.3401 N   0  0  0  0  0  0  0  0  0  0  0  0
   -9.0991   -6.4404   12.4997 H   0  0  0  0  0  0  0  0  0  0  0  0
  -10.3614   -5.6056   11.6724 H   0  0  0  0  0  0  0  0  0  0  0  0
   -9.0027   -6.7239    7.3978 H   0  0  0  0  0  0  0  0  0  0  0  0
   -7.3251   -8.4137    8.5827 H   0  0  0  0  0  0  0  0  0  0  0  0
   -7.8474   -8.2301   11.1007 H   0  0  0  0  0  0  0  0  0  0  0  0
  1  2  1  0
  1  7  1  0
  1  8  1  0
  2  3  2  0
  2  6  1  0
  3  4  1  0
  4  5  2  0
  4  9  1  0
  5  6  1  0
  5 10  1  0
  6 11  1  0
M  END
> <intraLJ>
-0.193    

> <intraEL>
-10.326   

> <intraDihe>
2.842     

> <interLJ>
0.000     

> <interEJ>
0.000     

> <gridLJ>
-2.211    

> <gridEL>
0.000     

> <totalE>
-9.887    

> <LGFE>
-2.211  

> <LE>
-0.368  

> <SMILES>
Nc1ncc[nH]1

> <atom.dprop.GFE>
-0.44 -0.23 -0.9 0.01 -0.031 -0.62 0 0 0 0 0

> <atom.prop.CLASS>
GEND GEHC GENA GEHC GEHC GEND NCLA NCLA NCLA NCLA NCLA

$$$$
