61_1
     RDKit          3D

 16 16  0  0  0  0  0  0  0  0999 V2000
   -1.9918    3.0815    7.5438 C   0  0  0  0  0  0  0  0  0  0  0  0
   -2.8362    3.9190    8.5242 C   0  0  0  0  0  0  0  0  0  0  0  0
   -2.3931    3.7406    9.9342 N   0  0  0  0  0  0  0  0  0  0  0  0
   -2.4063    2.2942   10.2820 C   0  0  0  0  0  0  0  0  0  0  0  0
   -1.5659    1.4541    9.2999 C   0  0  0  0  0  0  0  0  0  0  0  0
   -2.0079    1.6346    7.8903 N   0  0  0  0  0  0  0  0  0  0  0  0
   -0.9664    3.4545    7.5787 H   0  0  0  0  0  0  0  0  0  0  0  0
   -2.3779    3.2221    6.5328 H   0  0  0  0  0  0  0  0  0  0  0  0
   -3.8771    3.6056    8.4263 H   0  0  0  0  0  0  0  0  0  0  0  0
   -2.7645    4.9711    8.2467 H   0  0  0  0  0  0  0  0  0  0  0  0
   -2.9924    4.2621   10.5621 H   0  0  0  0  0  0  0  0  0  0  0  0
   -3.4326    1.9210   10.2513 H   0  0  0  0  0  0  0  0  0  0  0  0
   -2.0173    2.1550   11.2923 H   0  0  0  0  0  0  0  0  0  0  0  0
   -1.6420    0.4015    9.5779 H   0  0  0  0  0  0  0  0  0  0  0  0
   -0.5237    1.7643    9.3986 H   0  0  0  0  0  0  0  0  0  0  0  0
   -1.4090    1.1137    7.2630 H   0  0  0  0  0  0  0  0  0  0  0  0
  1  2  1  0
  1  6  1  0
  1  7  1  0
  1  8  1  0
  2  3  1  0
  2  9  1  0
  2 10  1  0
  3  4  1  0
  3 11  1  0
  4  5  1  0
  4 12  1  0
  4 13  1  0
  5  6  1  0
  5 14  1  0
  5 15  1  0
  6 16  1  0
M  END
> <intraLJ>
1.218     

> <intraEL>
5.660     

> <intraDihe>
4.795     

> <interLJ>
0.000     

> <interEJ>
0.000     

> <gridLJ>
-3.167    

> <gridEL>
0.000     

> <totalE>
8.506     

> <LGFE>
-3.167  

> <LE>
-0.528  

> <SMILES>
C1CNCCN1

> <atom.dprop.GFE>
-0.56 -0.51 -0.16 -0.43 -0.45 -1.1 0 0 0 0 0 0 0 0 0 0

> <atom.prop.CLASS>
PRPC PRPC GEND PRPC PRPC GEND NCLA NCLA NCLA NCLA NCLA NCLA NCLA NCLA NCLA NCLA

$$$$
