29_1
     RDKit          3D

 12 12  0  0  0  0  0  0  0  0999 V2000
   24.9025    9.4629  -15.5806 N   0  0  0  0  0  0  0  0  0  0  0  0
   24.3413   10.5104  -16.2997 C   0  0  0  0  0  0  0  0  0  0  0  0
   24.9554   11.6897  -16.5670 C   0  0  0  0  0  0  0  0  0  0  0  0
   23.9142   12.6931  -17.4943 S   0  0  0  0  0  0  0  0  0  0  0  0
   22.7603   11.4087  -17.4188 C   0  0  0  0  0  0  0  0  0  0  0  0
   21.5387   11.5321  -18.0279 N   0  0  0  0  0  0  0  0  0  0  0  0
   23.0933   10.3282  -16.7825 N   0  0  0  0  0  0  0  0  0  0  0  0
   24.3387    8.6247  -15.7754 H   0  0  0  0  0  0  0  0  0  0  0  0
   25.8841    9.3293  -15.8478 H   0  0  0  0  0  0  0  0  0  0  0  0
   25.9212   11.9949  -16.2654 H   0  0  0  0  0  0  0  0  0  0  0  0
   21.1220   10.6099  -18.2017 H   0  0  0  0  0  0  0  0  0  0  0  0
   21.5487   12.1709  -18.8314 H   0  0  0  0  0  0  0  0  0  0  0  0
  1  2  1  0
  1  8  1  0
  1  9  1  0
  2  3  2  0
  2  7  1  0
  3  4  1  0
  3 10  1  0
  4  5  1  0
  5  6  1  0
  5  7  2  0
  6 11  1  0
  6 12  1  0
M  END
> <intraLJ>
-0.273    

> <intraEL>
-13.389   

> <intraDihe>
3.347     

> <interLJ>
0.000     

> <interEJ>
0.000     

> <gridLJ>
-2.019    

> <gridEL>
0.000     

> <totalE>
-12.334   

> <LGFE>
-2.019  

> <LE>
-0.288  

> <SMILES>
Nc1csc(N)n1

> <atom.dprop.GFE>
-0.54 -0.12 -0.041 -0.38 -0.2 -0.4 -0.35 0 0 0 0 0

> <atom.prop.CLASS>
GEND GEHC GEHC PRPC GEHC GEND GENA NCLA NCLA NCLA NCLA NCLA

$$$$
