32
     RDKit          3D

 17 16  0  0  0  0  0  0  0  0999 V2000
    3.5120   13.1516   -9.7628 C   0  0  0  0  0  0  0  0  0  0  0  0
    2.3655   12.1444   -9.7164 C   0  0  0  0  0  0  0  0  0  0  0  0
    1.2701   12.5211  -10.7124 C   0  0  0  0  0  0  0  0  0  0  0  0
    1.7865   12.2512   -8.3916 N   0  0  0  0  0  0  0  0  0  0  0  0
    1.4837   11.2152   -7.5872 C   0  0  0  0  0  0  0  0  0  0  0  0
    1.9173   10.1021   -7.8017 O   0  0  0  0  0  0  0  0  0  0  0  0
    0.6760   11.4493   -6.5516 N   0  0  0  0  0  0  0  0  0  0  0  0
    3.9757   13.1341  -10.7486 H   0  0  0  0  0  0  0  0  0  0  0  0
    4.2605   12.8857   -9.0153 H   0  0  0  0  0  0  0  0  0  0  0  0
    3.1444   14.1574   -9.5589 H   0  0  0  0  0  0  0  0  0  0  0  0
    2.7512   11.1508   -9.9498 H   0  0  0  0  0  0  0  0  0  0  0  0
    0.8880   13.5192  -10.4983 H   0  0  0  0  0  0  0  0  0  0  0  0
    0.4515   11.8046  -10.6423 H   0  0  0  0  0  0  0  0  0  0  0  0
    1.6711   12.4999  -11.7250 H   0  0  0  0  0  0  0  0  0  0  0  0
    1.1878   13.0667   -8.2217 H   0  0  0  0  0  0  0  0  0  0  0  0
    0.3098   10.6087   -6.0915 H   0  0  0  0  0  0  0  0  0  0  0  0
    0.1007   12.2916   -6.5907 H   0  0  0  0  0  0  0  0  0  0  0  0
  1  2  1  0
  1  8  1  0
  1  9  1  0
  1 10  1  0
  2  3  1  0
  2  4  1  0
  2 11  1  0
  3 12  1  0
  3 13  1  0
  3 14  1  0
  4  5  1  0
  4 15  1  0
  5  6  2  0
  5  7  1  0
  7 16  1  0
  7 17  1  0
M  END
> <intraLJ>
-0.666    

> <intraEL>
-9.461    

> <intraDihe>
5.506     

> <interLJ>
0.000     

> <interEJ>
0.000     

> <gridLJ>
-2.183    

> <gridEL>
0.000     

> <totalE>
-6.803    

> <LGFE>
-2.183  

> <LE>
-0.312  

> <SMILES>
CC(C)NC(N)=O

> <atom.dprop.GFE>
-0.35 -0.28 -0.14 -0.38 0 -0.74 -0.31 0 0 0 0 0 0 0 0 0 0

> <atom.prop.CLASS>
PRPC PRPC PRPC GEND NCLA GENA GEND NCLA NCLA NCLA NCLA NCLA NCLA NCLA NCLA NCLA NCLA

$$$$
