9_2
     RDKit          3D

 13 13  0  0  0  0  0  0  0  0999 V2000
  -20.0686    1.0008   24.3055 O   0  0  0  0  0  0  0  0  0  0  0  0
  -18.7212    0.3982   24.2837 C   0  0  0  0  0  0  0  0  0  0  0  0
  -17.7724    1.0763   25.3141 C   0  0  0  0  0  0  0  0  0  0  0  0
  -17.5813    2.1387   24.2907 N   0  0  0  0  0  0  0  0  0  0  0  0
  -17.7926    1.0966   23.2503 C   0  0  0  0  0  0  0  0  0  0  0  0
  -20.7635    0.3196   24.2152 H   0  0  0  0  0  0  0  0  0  0  0  0
  -18.7406   -0.6830   24.2759 H   0  0  0  0  0  0  0  0  0  0  0  0
  -16.8705    0.5049   25.4926 H   0  0  0  0  0  0  0  0  0  0  0  0
  -18.2685    1.4141   26.2135 H   0  0  0  0  0  0  0  0  0  0  0  0
  -16.6175    2.5891   24.2858 H   0  0  0  0  0  0  0  0  0  0  0  0
  -18.3989    2.8261   24.3063 H   0  0  0  0  0  0  0  0  0  0  0  0
  -18.3063    1.4520   22.3664 H   0  0  0  0  0  0  0  0  0  0  0  0
  -16.8951    0.5300   23.0423 H   0  0  0  0  0  0  0  0  0  0  0  0
  1  2  1  0
  1  6  1  0
  2  3  1  0
  2  5  1  0
  2  7  1  0
  3  4  1  0
  3  8  1  0
  3  9  1  0
  4  5  1  0
  4 10  1  0
  4 11  1  0
  5 12  1  0
  5 13  1  0
M  CHG  1   4   1
M  END
> <intraLJ>
3.656     

> <intraEL>
5.220     

> <intraDihe>
6.360     

> <interLJ>
0.000     

> <interEJ>
0.000     

> <gridLJ>
-2.241    

> <gridEL>
0.000     

> <totalE>
12.995    

> <LGFE>
-2.241  

> <LE>
-0.448  

> <SMILES>
OC1C[NH2+]C1

> <atom.dprop.GFE>
-0.67 -0.36 -0.23 -0.45 -0.53 0 0 0 0 0 0 0 0

> <atom.prop.CLASS>
MEOO PRPC PRPC MAMN PRPC NCLA NCLA NCLA NCLA NCLA NCLA NCLA NCLA

$$$$
