51_1
     RDKit          3D

 12 12  0  0  0  0  0  0  0  0999 V2000
  -13.0983   15.0462   -4.3371 O   0  0  0  0  0  0  0  0  0  0  0  0
  -13.7246   14.0587   -3.9949 C   0  0  0  0  0  0  0  0  0  0  0  0
  -15.0662   13.9854   -3.3425 C   0  0  0  0  0  0  0  0  0  0  0  0
  -15.0247   12.5597   -2.7431 C   0  0  0  0  0  0  0  0  0  0  0  0
  -14.1398   11.7702   -3.6272 N   0  0  0  0  0  0  0  0  0  0  0  0
  -13.2622   12.8250   -4.1748 N   0  0  0  0  0  0  0  0  0  0  0  0
  -15.8201   14.0372   -4.1137 H   0  0  0  0  0  0  0  0  0  0  0  0
  -15.1542   14.7350   -2.5696 H   0  0  0  0  0  0  0  0  0  0  0  0
  -16.0251   12.1265   -2.6821 H   0  0  0  0  0  0  0  0  0  0  0  0
  -14.5832   12.5996   -1.7454 H   0  0  0  0  0  0  0  0  0  0  0  0
  -14.7386   11.4436   -4.4087 H   0  0  0  0  0  0  0  0  0  0  0  0
  -12.3233   12.6623   -4.5784 H   0  0  0  0  0  0  0  0  0  0  0  0
  1  2  2  0
  2  3  1  0
  2  6  1  0
  3  4  1  0
  3  7  1  0
  3  8  1  0
  4  5  1  0
  4  9  1  0
  4 10  1  0
  5  6  1  0
  5 11  1  0
  6 12  1  0
M  END
> <intraLJ>
-0.445    

> <intraEL>
-0.094    

> <intraDihe>
6.248     

> <interLJ>
0.000     

> <interEJ>
0.000     

> <gridLJ>
-2.044    

> <gridEL>
0.000     

> <totalE>
3.665     

> <LGFE>
-2.044  

> <LE>
-0.341  

> <SMILES>
O=C1CCNN1

> <atom.dprop.GFE>
-0.44 -0.21 -0.18 -0.15 -0.61 -0.47 0 0 0 0 0 0

> <atom.prop.CLASS>
GENA GEHC PRPC PRPC GEND GEND NCLA NCLA NCLA NCLA NCLA NCLA

$$$$
