24_2
     RDKit          3D

 17 17  0  0  0  0  0  0  0  0999 V2000
   -9.6983    2.5564    9.6001 N   0  0  0  0  0  0  0  0  0  0  0  0
   -9.2104    1.3967    9.8822 C   0  0  0  0  0  0  0  0  0  0  0  0
   -9.1246    1.0381   11.1342 N   0  0  0  0  0  0  0  0  0  0  0  0
   -8.5346   -0.2340   11.5716 C   0  0  0  0  0  0  0  0  0  0  0  0
   -8.7719   -1.2323   10.4341 C   0  0  0  0  0  0  0  0  0  0  0  0
   -8.2048   -0.6935    9.1171 C   0  0  0  0  0  0  0  0  0  0  0  0
   -8.8279    0.6196    8.9062 N   0  0  0  0  0  0  0  0  0  0  0  0
   -9.8038    2.8437    8.6230 H   0  0  0  0  0  0  0  0  0  0  0  0
  -10.0346    3.1671   10.3496 H   0  0  0  0  0  0  0  0  0  0  0  0
   -9.3983    1.7246   11.8427 H   0  0  0  0  0  0  0  0  0  0  0  0
   -9.0207   -0.5937   12.4825 H   0  0  0  0  0  0  0  0  0  0  0  0
   -7.4632   -0.1195   11.7550 H   0  0  0  0  0  0  0  0  0  0  0  0
   -9.8420   -1.4202   10.3248 H   0  0  0  0  0  0  0  0  0  0  0  0
   -8.2838   -2.1768   10.6770 H   0  0  0  0  0  0  0  0  0  0  0  0
   -8.4563   -1.3786    8.3019 H   0  0  0  0  0  0  0  0  0  0  0  0
   -7.1172   -0.5988    9.1861 H   0  0  0  0  0  0  0  0  0  0  0  0
   -8.8820    0.9928    7.9532 H   0  0  0  0  0  0  0  0  0  0  0  0
  1  2  2  0
  1  8  1  0
  1  9  1  0
  2  3  1  0
  2  7  1  0
  3  4  1  0
  3 10  1  0
  4  5  1  0
  4 11  1  0
  4 12  1  0
  5  6  1  0
  5 13  1  0
  5 14  1  0
  6  7  1  0
  6 15  1  0
  6 16  1  0
  7 17  1  0
M  CHG  1   1   1
M  END
> <intraLJ>
2.615     

> <intraEL>
-18.178   

> <intraDihe>
0.248     

> <interLJ>
0.000     

> <interEJ>
0.000     

> <gridLJ>
-2.410    

> <gridEL>
0.000     

> <totalE>
-17.725   

> <LGFE>
-2.410  

> <LE>
-0.344  

> <SMILES>
[NH2+]=C1NCCCN1

> <atom.dprop.GFE>
0 -2.2 0 -0.026 -0.081 -0.065 0 0 0 0 0 0 0 0 0 0 0

> <atom.prop.CLASS>
NCLA MAMC NCLA PRPC PRPC PRPC NCLA NCLA NCLA NCLA NCLA NCLA NCLA NCLA NCLA NCLA NCLA

$$$$
