17_2
     RDKit          3D

 16 16  0  0  0  0  0  0  0  0999 V2000
  -21.3537   -5.8942   -6.8997 N   0  0  0  0  0  0  0  0  0  0  0  0
  -21.9829   -6.9162   -6.2904 C   0  0  0  0  0  0  0  0  0  0  0  0
  -23.1920   -6.8658   -6.2462 O   0  0  0  0  0  0  0  0  0  0  0  0
  -21.2633   -8.1299   -5.6556 C   0  0  0  0  0  0  0  0  0  0  0  0
  -21.0186   -7.9900   -4.2281 N   0  0  0  0  0  0  0  0  0  0  0  0
  -20.2257   -8.8665   -6.4410 C   0  0  0  0  0  0  0  0  0  0  0  0
  -21.5707   -9.5083   -6.1473 C   0  0  0  0  0  0  0  0  0  0  0  0
  -21.9255   -5.1534   -7.2783 H   0  0  0  0  0  0  0  0  0  0  0  0
  -20.3516   -5.8491   -6.9853 H   0  0  0  0  0  0  0  0  0  0  0  0
  -21.4298   -7.0196   -4.0004 H   0  0  0  0  0  0  0  0  0  0  0  0
  -19.9684   -8.0115   -4.0679 H   0  0  0  0  0  0  0  0  0  0  0  0
  -21.5443   -8.7620   -3.7230 H   0  0  0  0  0  0  0  0  0  0  0  0
  -19.3757   -9.2733   -5.9071 H   0  0  0  0  0  0  0  0  0  0  0  0
  -20.0576   -8.5449   -7.4618 H   0  0  0  0  0  0  0  0  0  0  0  0
  -22.2554   -9.5956   -6.9827 H   0  0  0  0  0  0  0  0  0  0  0  0
  -21.5658  -10.3188   -5.4294 H   0  0  0  0  0  0  0  0  0  0  0  0
  1  2  1  0
  1  8  1  0
  1  9  1  0
  2  3  2  0
  2  4  1  0
  4  5  1  0
  4  6  1  0
  4  7  1  0
  5 10  1  0
  5 11  1  0
  5 12  1  0
  6  7  1  0
  6 13  1  0
  6 14  1  0
  7 15  1  0
  7 16  1  0
M  CHG  1   5   1
M  END
> <intraLJ>
-0.440    

> <intraEL>
0.094     

> <intraDihe>
6.333     

> <interLJ>
0.000     

> <interEJ>
0.000     

> <gridLJ>
-2.291    

> <gridEL>
0.000     

> <totalE>
3.696     

> <LGFE>
-2.291  

> <LE>
-0.327  

> <SMILES>
NC(=O)C1([NH3+])CC1

> <atom.dprop.GFE>
-0.12 0 -0.38 -0.16 -1.4 -0.12 -0.06 0 0 0 0 0 0 0 0 0

> <atom.prop.CLASS>
GEND NCLA GENA PRPC MAMN PRPC PRPC NCLA NCLA NCLA NCLA NCLA NCLA NCLA NCLA NCLA

$$$$
