9_2
     RDKit          3D

 13 13  0  0  0  0  0  0  0  0999 V2000
   10.5360   -6.6095  -10.7206 O   0  0  0  0  0  0  0  0  0  0  0  0
    9.5176   -5.5417  -10.6784 C   0  0  0  0  0  0  0  0  0  0  0  0
    9.8881   -4.4356   -9.6483 C   0  0  0  0  0  0  0  0  0  0  0  0
    9.3282   -5.3479   -8.6154 N   0  0  0  0  0  0  0  0  0  0  0  0
    8.3918   -5.8572   -9.6532 C   0  0  0  0  0  0  0  0  0  0  0  0
   10.6986   -6.9088  -11.6365 H   0  0  0  0  0  0  0  0  0  0  0  0
    9.2099   -5.2106  -11.6607 H   0  0  0  0  0  0  0  0  0  0  0  0
    9.2994   -3.5354   -9.7701 H   0  0  0  0  0  0  0  0  0  0  0  0
   10.9510   -4.2608   -9.5532 H   0  0  0  0  0  0  0  0  0  0  0  0
    8.8635   -4.8616   -7.7912 H   0  0  0  0  0  0  0  0  0  0  0  0
   10.0413   -6.0981   -8.3513 H   0  0  0  0  0  0  0  0  0  0  0  0
    8.1617   -6.9108   -9.5624 H   0  0  0  0  0  0  0  0  0  0  0  0
    7.5235   -5.2239   -9.7752 H   0  0  0  0  0  0  0  0  0  0  0  0
  1  2  1  0
  1  6  1  0
  2  3  1  0
  2  5  1  0
  2  7  1  0
  3  4  1  0
  3  8  1  0
  3  9  1  0
  4  5  1  0
  4 10  1  0
  4 11  1  0
  5 12  1  0
  5 13  1  0
M  CHG  1   4   1
M  END
> <intraLJ>
3.656     

> <intraEL>
5.220     

> <intraDihe>
6.360     

> <interLJ>
0.000     

> <interEJ>
0.000     

> <gridLJ>
-2.498    

> <gridEL>
0.000     

> <totalE>
12.738    

> <LGFE>
-2.498  

> <LE>
-0.500  

> <SMILES>
OC1C[NH2+]C1

> <atom.dprop.GFE>
-0.26 -0.27 -0.14 -1.8 -0.072 0 0 0 0 0 0 0 0

> <atom.prop.CLASS>
MEOO PRPC PRPC MAMN PRPC NCLA NCLA NCLA NCLA NCLA NCLA NCLA NCLA

$$$$
