2_1
     RDKit          3D

 15 15  0  0  0  0  0  0  0  0999 V2000
  -38.1158    7.9804   21.3182 C   0  0  0  0  0  0  0  0  0  0  0  0
  -39.1212    7.0932   22.0751 C   0  0  0  0  0  0  0  0  0  0  0  0
  -38.9600    5.7180   21.7235 O   0  0  0  0  0  0  0  0  0  0  0  0
  -39.1273    5.5104   20.3200 C   0  0  0  0  0  0  0  0  0  0  0  0
  -38.1218    6.3519   19.5114 C   0  0  0  0  0  0  0  0  0  0  0  0
  -38.2257    7.7965   19.8468 N   0  0  0  0  0  0  0  0  0  0  0  0
  -37.1110    7.7098   21.6493 H   0  0  0  0  0  0  0  0  0  0  0  0
  -38.2966    9.0250   21.5750 H   0  0  0  0  0  0  0  0  0  0  0  0
  -40.1333    7.4181   21.8307 H   0  0  0  0  0  0  0  0  0  0  0  0
  -38.9669    7.2098   23.1481 H   0  0  0  0  0  0  0  0  0  0  0  0
  -40.1392    5.7903   20.0247 H   0  0  0  0  0  0  0  0  0  0  0  0
  -38.9764    4.4551   20.0916 H   0  0  0  0  0  0  0  0  0  0  0  0
  -38.3075    6.2049   18.4467 H   0  0  0  0  0  0  0  0  0  0  0  0
  -37.1169    5.9917   19.7415 H   0  0  0  0  0  0  0  0  0  0  0  0
  -37.5173    8.3334   19.3599 H   0  0  0  0  0  0  0  0  0  0  0  0
  1  2  1  0
  1  6  1  0
  1  7  1  0
  1  8  1  0
  2  3  1  0
  2  9  1  0
  2 10  1  0
  3  4  1  0
  4  5  1  0
  4 11  1  0
  4 12  1  0
  5  6  1  0
  5 13  1  0
  5 14  1  0
  6 15  1  0
M  END
> <intraLJ>
0.516     

> <intraEL>
2.915     

> <intraDihe>
4.772     

> <interLJ>
0.000     

> <interEJ>
0.000     

> <gridLJ>
-2.934    

> <gridEL>
0.000     

> <totalE>
5.269     

> <LGFE>
-2.934  

> <LE>
-0.489  

> <SMILES>
C1COCCN1

> <atom.dprop.GFE>
-0.28 -0.4 -0.37 -0.57 -0.47 -0.84 0 0 0 0 0 0 0 0 0

> <atom.prop.CLASS>
PRPC PRPC GENA PRPC PRPC GEND NCLA NCLA NCLA NCLA NCLA NCLA NCLA NCLA NCLA

$$$$
