78_2
     RDKit          3D

 14 13  0  0  0  0  0  0  0  0999 V2000
   17.6297    6.6632   -5.8803 C   0  0  0  0  0  0  0  0  0  0  0  0
   18.1404    6.2389   -7.2790 C   0  0  0  0  0  0  0  0  0  0  0  0
   17.5283    4.9121   -7.7066 C   0  0  0  0  0  0  0  0  0  0  0  0
   16.3412    4.8550   -8.2159 N   0  0  0  0  0  0  0  0  0  0  0  0
   18.1209    3.7664   -7.5908 N   0  0  0  0  0  0  0  0  0  0  0  0
   18.1297    7.5969   -5.6151 H   0  0  0  0  0  0  0  0  0  0  0  0
   17.8899    5.8976   -5.1458 H   0  0  0  0  0  0  0  0  0  0  0  0
   16.5517    6.8353   -5.9158 H   0  0  0  0  0  0  0  0  0  0  0  0
   19.2141    6.1185   -7.2254 H   0  0  0  0  0  0  0  0  0  0  0  0
   17.8490    6.9958   -7.9953 H   0  0  0  0  0  0  0  0  0  0  0  0
   15.9158    3.9627   -8.5065 H   0  0  0  0  0  0  0  0  0  0  0  0
   15.7885    5.7212   -8.3420 H   0  0  0  0  0  0  0  0  0  0  0  0
   17.6762    2.8861   -7.8869 H   0  0  0  0  0  0  0  0  0  0  0  0
   19.0744    3.7245   -7.1915 H   0  0  0  0  0  0  0  0  0  0  0  0
  1  2  1  0
  1  6  1  0
  1  7  1  0
  1  8  1  0
  2  3  1  0
  2  9  1  0
  2 10  1  0
  3  4  2  0
  3  5  1  0
  4 11  1  0
  4 12  1  0
  5 13  1  0
  5 14  1  0
M  CHG  1   4   1
M  END
> <intraLJ>
0.191     

> <intraEL>
-6.611    

> <intraDihe>
1.001     

> <interLJ>
0.000     

> <interEJ>
0.000     

> <gridLJ>
-3.138    

> <gridEL>
0.000     

> <totalE>
-8.558    

> <LGFE>
-3.138  

> <LE>
-0.628  

> <SMILES>
CCC(N)=[NH2+]

> <atom.dprop.GFE>
-0.56 -0.47 -2.1 0 0 0 0 0 0 0 0 0 0 0

> <atom.prop.CLASS>
PRPC PRPC MAMC NCLA NCLA NCLA NCLA NCLA NCLA NCLA NCLA NCLA NCLA NCLA

$$$$
