18
     RDKit          3D

 13 13  0  0  0  0  0  0  0  0999 V2000
   -1.1419   14.1975   -3.5871 O   0  0  0  0  0  0  0  0  0  0  0  0
   -1.9096   13.4896   -2.5969 C   0  0  0  0  0  0  0  0  0  0  0  0
   -3.2828   14.2851   -2.2849 C   0  0  0  0  0  0  0  0  0  0  0  0
   -2.6383   14.7392   -0.7317 S   0  0  0  0  0  0  0  0  0  0  0  0
   -3.4026   14.1637    0.3219 O   0  0  0  0  0  0  0  0  0  0  0  0
   -2.2936   16.1191   -0.6861 O   0  0  0  0  0  0  0  0  0  0  0  0
   -1.2709   13.7382   -1.1303 C   0  0  0  0  0  0  0  0  0  0  0  0
   -1.4687   14.0126   -4.4846 H   0  0  0  0  0  0  0  0  0  0  0  0
   -2.0360   12.4485   -2.8622 H   0  0  0  0  0  0  0  0  0  0  0  0
   -4.0955   13.5720   -2.3183 H   0  0  0  0  0  0  0  0  0  0  0  0
   -3.4128   15.0384   -3.0507 H   0  0  0  0  0  0  0  0  0  0  0  0
   -0.2972   14.1913   -1.2639 H   0  0  0  0  0  0  0  0  0  0  0  0
   -1.1748   12.7781   -0.6419 H   0  0  0  0  0  0  0  0  0  0  0  0
  1  2  1  0
  1  8  1  0
  2  3  1  0
  2  7  1  0
  2  9  1  0
  3  4  1  0
  3 10  1  0
  3 11  1  0
  4  5  2  0
  4  6  2  0
  4  7  1  0
  7 12  1  0
  7 13  1  0
M  END
> <intraLJ>
0.307     

> <intraEL>
-1.458    

> <intraDihe>
23.153    

> <interLJ>
0.000     

> <interEJ>
0.000     

> <gridLJ>
-4.064    

> <gridEL>
0.000     

> <totalE>
17.938    

> <LGFE>
-4.064  

> <LE>
-0.581  

> <SMILES>
O=S1(=O)CC(O)C1

> <atom.dprop.GFE>
-0.32 -0.58 -0.64 0 -0.83 -1.1 -0.57 0 0 0 0 0 0

> <atom.prop.CLASS>
MEOO PRPC PRPC NCLA GENA GENA PRPC NCLA NCLA NCLA NCLA NCLA NCLA

$$$$
