48_2
     RDKit          3D

 18 17  0  0  1  0  0  0  0  0999 V2000
  -37.1404   15.7424   27.9172 C   0  0  0  0  0  0  0  0  0  0  0  0
  -37.0794   15.8468   26.3821 C   0  0  0  0  0  0  0  0  0  0  0  0
  -37.7586   17.1040   25.8132 C   0  0  0  0  0  0  0  0  0  0  0  0
  -37.0662   18.3168   26.3245 N   0  0  0  0  0  0  0  0  0  0  0  0
  -39.2770   17.1320   26.1616 C   0  0  0  0  0  0  0  0  0  0  0  0
  -39.7266   18.1078   26.7415 O   0  0  0  0  0  0  0  0  0  0  0  0
  -40.0945   16.1437   25.8229 N   0  0  0  0  0  0  0  0  0  0  0  0
  -36.5481   14.8825   28.2412 H   0  0  0  0  0  0  0  0  0  0  0  0
  -38.1622   15.5902   28.2666 H   0  0  0  0  0  0  0  0  0  0  0  0
  -36.7195   16.6365   28.3818 H   0  0  0  0  0  0  0  0  0  0  0  0
  -37.5321   14.9555   25.9426 H   0  0  0  0  0  0  0  0  0  0  0  0
  -36.0282   15.8576   26.0872 H   0  0  0  0  0  0  0  0  0  0  0  0
  -37.6758   17.0693   24.7249 H   0  0  0  0  0  0  0  0  0  0  0  0
  -37.2928   18.3983   27.3089 H   0  0  0  0  0  0  0  0  0  0  0  0
  -37.4572   19.1372   25.8826 H   0  0  0  0  0  0  0  0  0  0  0  0
  -36.0703   18.2556   26.1853 H   0  0  0  0  0  0  0  0  0  0  0  0
  -41.0649   16.2539   26.0864 H   0  0  0  0  0  0  0  0  0  0  0  0
  -39.7912   15.3093   25.3457 H   0  0  0  0  0  0  0  0  0  0  0  0
  1  2  1  0
  1  8  1  0
  1  9  1  0
  1 10  1  0
  2  3  1  0
  2 11  1  0
  2 12  1  0
  3  4  1  0
  3  5  1  0
  3 13  1  0
  4 14  1  0
  4 15  1  0
  4 16  1  0
  5  6  2  0
  5  7  1  0
  7 17  1  0
  7 18  1  0
M  CHG  1   4   1
M  END
> <intraLJ>
0.293     

> <intraEL>
1.532     

> <intraDihe>
0.750     

> <interLJ>
0.000     

> <interEJ>
0.000     

> <gridLJ>
-2.084    

> <gridEL>
0.000     

> <totalE>
0.492     

> <LGFE>
-2.084  

> <LE>
-0.298  

> <SMILES>
CCC([NH3+])C(N)=O

> <atom.dprop.GFE>
-0.16 -0.17 -0.084 -1.4 0 -0.089 -0.18 0 0 0 0 0 0 0 0 0 0 0

> <atom.prop.CLASS>
PRPC PRPC PRPC MAMN NCLA GENA GEND NCLA NCLA NCLA NCLA NCLA NCLA NCLA NCLA NCLA NCLA NCLA

$$$$
