27_1
     RDKit          3D

 11 11  0  0  0  0  0  0  0  0999 V2000
  -31.1080   -5.3386   17.8683 N   0  0  0  0  0  0  0  0  0  0  0  0
  -32.3847   -5.7288   17.5458 C   0  0  0  0  0  0  0  0  0  0  0  0
  -33.1528   -6.4346   18.3136 N   0  0  0  0  0  0  0  0  0  0  0  0
  -34.3064   -6.5754   17.5909 C   0  0  0  0  0  0  0  0  0  0  0  0
  -34.2120   -5.9489   16.3944 C   0  0  0  0  0  0  0  0  0  0  0  0
  -32.9725   -5.4090   16.3696 N   0  0  0  0  0  0  0  0  0  0  0  0
  -30.8363   -4.4103   17.5258 H   0  0  0  0  0  0  0  0  0  0  0  0
  -30.9324   -5.4833   18.8727 H   0  0  0  0  0  0  0  0  0  0  0  0
  -35.1566   -7.1095   17.9347 H   0  0  0  0  0  0  0  0  0  0  0  0
  -34.9064   -5.8616   15.5993 H   0  0  0  0  0  0  0  0  0  0  0  0
  -32.5248   -4.8743   15.6126 H   0  0  0  0  0  0  0  0  0  0  0  0
  1  2  1  0
  1  7  1  0
  1  8  1  0
  2  3  2  0
  2  6  1  0
  3  4  1  0
  4  5  2  0
  4  9  1  0
  5  6  1  0
  5 10  1  0
  6 11  1  0
M  END
> <intraLJ>
-0.193    

> <intraEL>
-10.326   

> <intraDihe>
2.842     

> <interLJ>
0.000     

> <interEJ>
0.000     

> <gridLJ>
-2.047    

> <gridEL>
0.000     

> <totalE>
-9.723    

> <LGFE>
-2.047  

> <LE>
-0.341  

> <SMILES>
Nc1ncc[nH]1

> <atom.dprop.GFE>
-0.8 -0.12 -0.5 -0.025 -0.019 -0.58 0 0 0 0 0

> <atom.prop.CLASS>
GEND GEHC GENA GEHC GEHC GEND NCLA NCLA NCLA NCLA NCLA

$$$$
