29_1
     RDKit          3D

 12 12  0  0  0  0  0  0  0  0999 V2000
  -14.2649    7.8005  -18.1163 N   0  0  0  0  0  0  0  0  0  0  0  0
  -13.4294    6.7259  -18.3933 C   0  0  0  0  0  0  0  0  0  0  0  0
  -12.0897    6.8095  -18.5864 C   0  0  0  0  0  0  0  0  0  0  0  0
  -11.4442    5.2460  -18.8856 S   0  0  0  0  0  0  0  0  0  0  0  0
  -13.0573    4.6487  -18.7181 C   0  0  0  0  0  0  0  0  0  0  0  0
  -13.3218    3.3098  -18.8451 N   0  0  0  0  0  0  0  0  0  0  0  0
  -13.9984    5.5028  -18.4569 N   0  0  0  0  0  0  0  0  0  0  0  0
  -15.1454    7.4140  -17.7507 H   0  0  0  0  0  0  0  0  0  0  0  0
  -13.8218    8.4355  -17.4431 H   0  0  0  0  0  0  0  0  0  0  0  0
  -11.4911    7.6804  -18.5739 H   0  0  0  0  0  0  0  0  0  0  0  0
  -14.2089    3.0675  -18.3883 H   0  0  0  0  0  0  0  0  0  0  0  0
  -12.5224    2.7136  -18.6021 H   0  0  0  0  0  0  0  0  0  0  0  0
  1  2  1  0
  1  8  1  0
  1  9  1  0
  2  3  2  0
  2  7  1  0
  3  4  1  0
  3 10  1  0
  4  5  1  0
  5  6  1  0
  5  7  2  0
  6 11  1  0
  6 12  1  0
M  END
> <intraLJ>
-0.273    

> <intraEL>
-13.389   

> <intraDihe>
3.347     

> <interLJ>
0.000     

> <interEJ>
0.000     

> <gridLJ>
-2.154    

> <gridEL>
0.000     

> <totalE>
-12.470   

> <LGFE>
-2.154  

> <LE>
-0.308  

> <SMILES>
Nc1csc(N)n1

> <atom.dprop.GFE>
-0.27 -0.17 -0.11 -0.16 -0.093 -0.44 -0.91 0 0 0 0 0

> <atom.prop.CLASS>
GEND GEHC GEHC PRPC GEHC GEND GENA NCLA NCLA NCLA NCLA NCLA

$$$$
