59_1
     RDKit          3D

 10  9  0  0  0  0  0  0  0  0999 V2000
    6.4405   -6.5203    3.9732 C   0  0  0  0  0  0  0  0  0  0  0  0
    6.9670   -5.5874    2.9044 C   0  0  0  0  0  0  0  0  0  0  0  0
    7.9145   -4.8793    3.1892 O   0  0  0  0  0  0  0  0  0  0  0  0
    6.3291   -5.5645    1.5716 C   0  0  0  0  0  0  0  0  0  0  0  0
    6.9203   -5.4183    0.5190 O   0  0  0  0  0  0  0  0  0  0  0  0
    5.0270   -5.7053    1.3960 O   0  0  0  0  0  0  0  0  0  0  0  0
    6.5256   -7.5252    3.5834 H   0  0  0  0  0  0  0  0  0  0  0  0
    5.4048   -6.2562    4.1397 H   0  0  0  0  0  0  0  0  0  0  0  0
    7.0406   -6.3802    4.8614 H   0  0  0  0  0  0  0  0  0  0  0  0
    4.9565   -5.6432    0.4249 H   0  0  0  0  0  0  0  0  0  0  0  0
  1  2  1  0
  1  7  1  0
  1  8  1  0
  1  9  1  0
  2  3  2  0
  2  4  1  0
  4  5  2  0
  4  6  1  0
  6 10  1  0
M  END
> <intraLJ>
-0.529    

> <intraEL>
-0.061    

> <intraDihe>
2.327     

> <interLJ>
0.000     

> <interEJ>
0.000     

> <gridLJ>
-3.525    

> <gridEL>
0.000     

> <totalE>
-1.788    

> <LGFE>
-3.525  

> <LE>
-0.587  

> <SMILES>
CC(=O)C(=O)O

> <atom.dprop.GFE>
-0.39 0 -1.5 0 -1.1 -0.58 0 0 0 0

> <atom.prop.CLASS>
PRPC NCLA GENA NCLA GENA MEOO NCLA NCLA NCLA NCLA

$$$$
