27_2
     RDKit          3D

 12 12  0  0  0  0  0  0  0  0999 V2000
    0.8763   -3.0067    9.8079 N   0  0  0  0  0  0  0  0  0  0  0  0
    1.8634   -3.7414   10.2623 C   0  0  0  0  0  0  0  0  0  0  0  0
    2.8726   -4.1873    9.5502 N   0  0  0  0  0  0  0  0  0  0  0  0
    3.7089   -4.9235   10.3705 C   0  0  0  0  0  0  0  0  0  0  0  0
    3.1584   -4.9007   11.6021 C   0  0  0  0  0  0  0  0  0  0  0  0
    1.9995   -4.1506   11.5028 N   0  0  0  0  0  0  0  0  0  0  0  0
    0.1255   -2.7020   10.4387 H   0  0  0  0  0  0  0  0  0  0  0  0
    0.8495   -2.7316    8.8194 H   0  0  0  0  0  0  0  0  0  0  0  0
    2.9867   -3.9959    8.5452 H   0  0  0  0  0  0  0  0  0  0  0  0
    4.5994   -5.3899   10.0255 H   0  0  0  0  0  0  0  0  0  0  0  0
    3.4884   -5.3437   12.5096 H   0  0  0  0  0  0  0  0  0  0  0  0
    1.3295   -3.9271   12.2506 H   0  0  0  0  0  0  0  0  0  0  0  0
  1  2  2  0
  1  7  1  0
  1  8  1  0
  2  3  1  0
  2  6  1  0
  3  4  1  0
  3  9  1  0
  4  5  2  0
  4 10  1  0
  5  6  1  0
  5 11  1  0
  6 12  1  0
M  CHG  1   1   1
M  END
> <intraLJ>
-0.384    

> <intraEL>
3.349     

> <intraDihe>
0.000     

> <interLJ>
0.000     

> <interEJ>
0.000     

> <gridLJ>
-4.800    

> <gridEL>
0.000     

> <totalE>
-1.834    

> <LGFE>
-4.800  

> <LE>
-0.800  

> <SMILES>
[NH2+]=c1[nH]cc[nH]1

> <atom.dprop.GFE>
-2.4 -2.4 0 0.048 -0.022 0 0 0 0 0 0 0

> <atom.prop.CLASS>
MAMN MAMC NCLA GEHC GEHC NCLA NCLA NCLA NCLA NCLA NCLA NCLA

$$$$
