1
     RDKit          3D

  9  9  0  0  0  0  0  0  0  0999 V2000
   -5.5456   10.8884   10.0389 Br  0  0  0  0  0  0  0  0  0  0  0  0
   -5.5867   10.7142    8.1662 C   0  0  0  0  0  0  0  0  0  0  0  0
   -4.7104   11.2899    7.2512 C   0  0  0  0  0  0  0  0  0  0  0  0
   -5.0271   10.9624    6.0249 N   0  0  0  0  0  0  0  0  0  0  0  0
   -6.1216   10.1644    6.1571 N   0  0  0  0  0  0  0  0  0  0  0  0
   -6.4798    9.9993    7.4497 C   0  0  0  0  0  0  0  0  0  0  0  0
   -3.8903   11.9153    7.4958 H   0  0  0  0  0  0  0  0  0  0  0  0
   -6.6080    9.7428    5.3422 H   0  0  0  0  0  0  0  0  0  0  0  0
   -7.3080    9.4100    7.7453 H   0  0  0  0  0  0  0  0  0  0  0  0
  1  2  1  0
  2  3  1  0
  2  6  2  0
  3  4  2  0
  3  7  1  0
  4  5  1  0
  5  6  1  0
  5  8  1  0
  6  9  1  0
M  END
> <intraLJ>
-0.882    

> <intraEL>
0.676     

> <intraDihe>
0.000     

> <interLJ>
0.000     

> <interEJ>
0.000     

> <gridLJ>
-2.354    

> <gridEL>
0.000     

> <totalE>
-2.560    

> <LGFE>
-2.354  

> <LE>
-0.392  

> <SMILES>
Brc1cn[nH]c1

> <atom.dprop.GFE>
-0.24 -0.015 -0.23 -1.1 -0.65 -0.074 0 0 0

> <atom.prop.CLASS>
GENA GEHC GEHC GENA GEND GEHC NCLA NCLA NCLA

$$$$
