58
     RDKit          3D

 12 12  0  0  0  0  0  0  0  0999 V2000
    3.4058   -5.0332  -33.2190 O   0  0  0  0  0  0  0  0  0  0  0  0
    2.8553   -4.9708  -34.3015 C   0  0  0  0  0  0  0  0  0  0  0  0
    1.9569   -4.0496  -34.6657 N   0  0  0  0  0  0  0  0  0  0  0  0
    1.3601   -4.3533  -35.9593 C   0  0  0  0  0  0  0  0  0  0  0  0
    2.3736   -5.3628  -36.5327 C   0  0  0  0  0  0  0  0  0  0  0  0
    3.0488   -5.8115  -35.3229 N   0  0  0  0  0  0  0  0  0  0  0  0
    1.4891   -3.5350  -33.9101 H   0  0  0  0  0  0  0  0  0  0  0  0
    1.2817   -3.4690  -36.5937 H   0  0  0  0  0  0  0  0  0  0  0  0
    0.3897   -4.8326  -35.8245 H   0  0  0  0  0  0  0  0  0  0  0  0
    3.0780   -4.8525  -37.1921 H   0  0  0  0  0  0  0  0  0  0  0  0
    1.8669   -6.1800  -37.0484 H   0  0  0  0  0  0  0  0  0  0  0  0
    3.9091   -6.3706  -35.3050 H   0  0  0  0  0  0  0  0  0  0  0  0
  1  2  2  0
  2  3  1  0
  2  6  1  0
  3  4  1  0
  3  7  1  0
  4  5  1  0
  4  8  1  0
  4  9  1  0
  5  6  1  0
  5 10  1  0
  5 11  1  0
  6 12  1  0
M  END
> <intraLJ>
-0.226    

> <intraEL>
-6.154    

> <intraDihe>
4.218     

> <interLJ>
0.000     

> <interEJ>
0.000     

> <gridLJ>
-2.098    

> <gridEL>
0.000     

> <totalE>
-4.259    

> <LGFE>
-2.098  

> <LE>
-0.350  

> <SMILES>
O=C1NCCN1

> <atom.dprop.GFE>
-0.35 -0.13 -0.75 -0.13 -0.06 -0.68 0 0 0 0 0 0

> <atom.prop.CLASS>
GENA GEHC GEND PRPC PRPC GEND NCLA NCLA NCLA NCLA NCLA NCLA

$$$$
