29_1
     RDKit          3D

 12 12  0  0  0  0  0  0  0  0999 V2000
  -20.6574    0.5716   23.0395 N   0  0  0  0  0  0  0  0  0  0  0  0
  -21.3386    1.5114   22.2763 C   0  0  0  0  0  0  0  0  0  0  0  0
  -21.1348    1.7383   20.9548 C   0  0  0  0  0  0  0  0  0  0  0  0
  -22.1970    2.9706   20.4035 S   0  0  0  0  0  0  0  0  0  0  0  0
  -22.8009    3.0461   22.0211 C   0  0  0  0  0  0  0  0  0  0  0  0
  -23.8007    3.9233   22.3519 N   0  0  0  0  0  0  0  0  0  0  0  0
  -22.2884    2.2410   22.9001 N   0  0  0  0  0  0  0  0  0  0  0  0
  -21.1997    0.4307   23.9022 H   0  0  0  0  0  0  0  0  0  0  0  0
  -20.5455   -0.3034   22.5155 H   0  0  0  0  0  0  0  0  0  0  0  0
  -20.4358    1.2627   20.3208 H   0  0  0  0  0  0  0  0  0  0  0  0
  -24.2823    3.6229   23.2076 H   0  0  0  0  0  0  0  0  0  0  0  0
  -24.4111    4.1597   21.5612 H   0  0  0  0  0  0  0  0  0  0  0  0
  1  2  1  0
  1  8  1  0
  1  9  1  0
  2  3  2  0
  2  7  1  0
  3  4  1  0
  3 10  1  0
  4  5  1  0
  5  6  1  0
  5  7  2  0
  6 11  1  0
  6 12  1  0
M  END
> <intraLJ>
-0.273    

> <intraEL>
-13.389   

> <intraDihe>
3.347     

> <interLJ>
0.000     

> <interEJ>
0.000     

> <gridLJ>
-5.220    

> <gridEL>
0.000     

> <totalE>
-15.536   

> <LGFE>
-5.220  

> <LE>
-0.746  

> <SMILES>
Nc1csc(N)n1

> <atom.dprop.GFE>
-0.92 -0.41 -0.31 -0.12 -0.21 -1.4 -1.9 0 0 0 0 0

> <atom.prop.CLASS>
GEND GEHC GEHC PRPC GEHC GEND GENA NCLA NCLA NCLA NCLA NCLA

$$$$
