64_2
     RDKit          3D

 15 15  0  0  0  0  0  0  0  0999 V2000
    7.3146   -6.6696    4.6723 N   0  0  0  0  0  0  0  0  0  0  0  0
    6.3175   -5.7294    4.1968 C   0  0  0  0  0  0  0  0  0  0  0  0
    6.9575   -5.2465    2.9239 C   0  0  0  0  0  0  0  0  0  0  0  0
    7.8456   -4.1528    2.8469 C   0  0  0  0  0  0  0  0  0  0  0  0
    8.3091   -3.9347    1.5820 C   0  0  0  0  0  0  0  0  0  0  0  0
    7.6643   -5.0688    0.4529 S   0  0  0  0  0  0  0  0  0  0  0  0
    6.7606   -5.8389    1.7066 C   0  0  0  0  0  0  0  0  0  0  0  0
    7.0160   -7.0805    5.5435 H   0  0  0  0  0  0  0  0  0  0  0  0
    8.1795   -6.1562    4.7671 H   0  0  0  0  0  0  0  0  0  0  0  0
    7.4370   -7.3601    3.9457 H   0  0  0  0  0  0  0  0  0  0  0  0
    6.2010   -4.8951    4.8807 H   0  0  0  0  0  0  0  0  0  0  0  0
    5.3836   -6.2302    3.9646 H   0  0  0  0  0  0  0  0  0  0  0  0
    8.1293   -3.5441    3.6690 H   0  0  0  0  0  0  0  0  0  0  0  0
    8.9788   -3.1773    1.2603 H   0  0  0  0  0  0  0  0  0  0  0  0
    6.1435   -6.6707    1.4735 H   0  0  0  0  0  0  0  0  0  0  0  0
  1  2  1  0
  1  8  1  0
  1  9  1  0
  1 10  1  0
  2  3  1  0
  2 11  1  0
  2 12  1  0
  3  4  1  0
  3  7  2  0
  4  5  2  0
  4 13  1  0
  5  6  1  0
  5 14  1  0
  6  7  1  0
  7 15  1  0
M  CHG  1   1   1
M  END
> <intraLJ>
1.075     

> <intraEL>
2.881     

> <intraDihe>
9.749     

> <interLJ>
0.000     

> <interEJ>
0.000     

> <gridLJ>
-2.623    

> <gridEL>
0.000     

> <totalE>
11.083    

> <LGFE>
-2.623  

> <LE>
-0.375  

> <SMILES>
[NH3+]Cc1ccsc1

> <atom.dprop.GFE>
-0.19 -0.47 -0.4 -0.37 -0.34 -0.48 -0.37 0 0 0 0 0 0 0 0

> <atom.prop.CLASS>
MAMN PRPC GEHC GEHC GEHC PRPC GEHC NCLA NCLA NCLA NCLA NCLA NCLA NCLA NCLA

$$$$
