29_2
     RDKit          3D

 13 13  0  0  0  0  0  0  0  0999 V2000
  -20.8241    6.0434   -5.1240 N   0  0  0  0  0  0  0  0  0  0  0  0
  -21.0520    6.4615   -6.4285 C   0  0  0  0  0  0  0  0  0  0  0  0
  -20.9060    7.6943   -6.9671 C   0  0  0  0  0  0  0  0  0  0  0  0
  -21.2940    7.6775   -8.6584 S   0  0  0  0  0  0  0  0  0  0  0  0
  -21.6172    6.0003   -8.5619 C   0  0  0  0  0  0  0  0  0  0  0  0
  -21.9968    5.2421   -9.6080 N   0  0  0  0  0  0  0  0  0  0  0  0
  -21.4504    5.5121   -7.3327 N   0  0  0  0  0  0  0  0  0  0  0  0
  -21.4834    5.3419   -4.7543 H   0  0  0  0  0  0  0  0  0  0  0  0
  -20.7138    6.8375   -4.4684 H   0  0  0  0  0  0  0  0  0  0  0  0
  -20.5975    8.5796   -6.4711 H   0  0  0  0  0  0  0  0  0  0  0  0
  -22.1744    4.2303   -9.5326 H   0  0  0  0  0  0  0  0  0  0  0  0
  -22.1002    5.6890  -10.5358 H   0  0  0  0  0  0  0  0  0  0  0  0
  -21.5599    4.5217   -7.0949 H   0  0  0  0  0  0  0  0  0  0  0  0
  1  2  1  0
  1  8  1  0
  1  9  1  0
  2  3  2  0
  2  7  1  0
  3  4  1  0
  3 10  1  0
  4  5  1  0
  5  6  2  0
  5  7  1  0
  6 11  1  0
  6 12  1  0
  7 13  1  0
M  CHG  1   6   1
M  END
> <intraLJ>
-0.730    

> <intraEL>
-5.242    

> <intraDihe>
2.059     

> <interLJ>
0.000     

> <interEJ>
0.000     

> <gridLJ>
-2.751    

> <gridEL>
0.000     

> <totalE>
-6.664    

> <LGFE>
-2.751  

> <LE>
-0.393  

> <SMILES>
Nc1csc(=[NH2+])[nH]1

> <atom.dprop.GFE>
-0.81 -0.13 -0.12 -0.28 -0.63 -0.76 0 0 0 0 0 0 0

> <atom.prop.CLASS>
GEND GEHC GEHC PRPC MAMC MAMN NCLA NCLA NCLA NCLA NCLA NCLA NCLA

$$$$
