62_1
     RDKit          3D

 12 12  0  0  0  0  0  0  0  0999 V2000
  -24.9575  -15.4799   11.7873 O   0  0  0  0  0  0  0  0  0  0  0  0
  -24.3853  -15.9983   10.7314 C   0  0  0  0  0  0  0  0  0  0  0  0
  -23.2032  -16.1936   10.9153 O   0  0  0  0  0  0  0  0  0  0  0  0
  -25.1400  -16.2772    9.5243 C   0  0  0  0  0  0  0  0  0  0  0  0
  -24.5828  -16.8358    8.3486 C   0  0  0  0  0  0  0  0  0  0  0  0
  -25.4942  -17.0039    7.3483 C   0  0  0  0  0  0  0  0  0  0  0  0
  -27.0721  -16.4793    7.8206 S   0  0  0  0  0  0  0  0  0  0  0  0
  -26.4893  -16.0322    9.3801 C   0  0  0  0  0  0  0  0  0  0  0  0
  -24.1803  -15.4354   12.3743 H   0  0  0  0  0  0  0  0  0  0  0  0
  -23.5589  -17.0982    8.2549 H   0  0  0  0  0  0  0  0  0  0  0  0
  -25.3234  -17.3993    6.3806 H   0  0  0  0  0  0  0  0  0  0  0  0
  -27.1460  -15.6193   10.1029 H   0  0  0  0  0  0  0  0  0  0  0  0
  1  2  1  0
  1  9  1  0
  2  3  2  0
  2  4  1  0
  4  5  1  0
  4  8  2  0
  5  6  2  0
  5 10  1  0
  6  7  1  0
  6 11  1  0
  7  8  1  0
  8 12  1  0
M  END
> <intraLJ>
0.659     

> <intraEL>
-0.587    

> <intraDihe>
2.060     

> <interLJ>
0.000     

> <interEJ>
0.000     

> <gridLJ>
-2.187    

> <gridEL>
0.000     

> <totalE>
-0.056    

> <LGFE>
-2.187  

> <LE>
-0.273  

> <SMILES>
O=C(O)c1ccsc1

> <atom.dprop.GFE>
-0.71 0 -0.64 -0.2 -0.066 -0.11 -0.28 -0.18 0 0 0 0

> <atom.prop.CLASS>
MEOO NCLA GENA GEHC GEHC GEHC PRPC GEHC NCLA NCLA NCLA NCLA

$$$$
