23_3
     RDKit          3D

 11 11  0  0  0  0  0  0  0  0999 V2000
   23.1101   11.1828   -1.4547 O   0  0  0  0  0  0  0  0  0  0  0  0
   22.4002   11.8319   -0.7018 C   0  0  0  0  0  0  0  0  0  0  0  0
   21.8894   11.1664    0.3750 N   0  0  0  0  0  0  0  0  0  0  0  0
   21.0770   11.7721    1.3014 C   0  0  0  0  0  0  0  0  0  0  0  0
   20.7907   13.0880    1.1077 C   0  0  0  0  0  0  0  0  0  0  0  0
   21.3324   13.7668   -0.0208 C   0  0  0  0  0  0  0  0  0  0  0  0
   22.0897   13.1767   -0.8725 N   0  0  0  0  0  0  0  0  0  0  0  0
   22.1596   10.1754    0.4398 H   0  0  0  0  0  0  0  0  0  0  0  0
   20.7286   11.1710    2.1056 H   0  0  0  0  0  0  0  0  0  0  0  0
   20.1717   13.6195    1.7807 H   0  0  0  0  0  0  0  0  0  0  0  0
   21.1068   14.7930   -0.1675 H   0  0  0  0  0  0  0  0  0  0  0  0
  1  2  2  0
  2  3  1  0
  2  7  1  0
  3  4  1  0
  3  8  1  0
  4  5  2  0
  4  9  1  0
  5  6  1  0
  5 10  1  0
  6  7  2  0
  6 11  1  0
M  END
> <intraLJ>
11.692    

> <intraEL>
-4.846    

> <intraDihe>
0.000     

> <interLJ>
0.000     

> <interEJ>
0.000     

> <gridLJ>
-2.472    

> <gridEL>
0.000     

> <totalE>
4.375     

> <LGFE>
-2.472  

> <LE>
-0.353  

> <SMILES>
O=c1nccc[nH]1

> <atom.dprop.GFE>
-0.67 -0.22 -0.59 -0.15 -0.12 -0.061 -0.67 0 0 0 0

> <atom.prop.CLASS>
GENA GEHC GEND BENC BENC BENC GENA NCLA NCLA NCLA NCLA

$$$$
