4
     RDKit          3D

 13 13  0  0  0  0  0  0  0  0999 V2000
  -30.4143   -9.2613   23.0063 O   0  0  0  0  0  0  0  0  0  0  0  0
  -30.0688   -9.0383   24.3861 C   0  0  0  0  0  0  0  0  0  0  0  0
  -29.5997  -10.4142   24.8844 C   0  0  0  0  0  0  0  0  0  0  0  0
  -28.6026  -10.4083   26.0057 C   0  0  0  0  0  0  0  0  0  0  0  0
  -28.1679  -10.7620   24.6019 C   0  0  0  0  0  0  0  0  0  0  0  0
  -30.7532   -8.4466   22.6017 H   0  0  0  0  0  0  0  0  0  0  0  0
  -30.9426   -8.7181   24.9377 H   0  0  0  0  0  0  0  0  0  0  0  0
  -29.2418   -8.3422   24.4486 H   0  0  0  0  0  0  0  0  0  0  0  0
  -30.3449  -11.1991   24.8595 H   0  0  0  0  0  0  0  0  0  0  0  0
  -28.6766  -11.2232   26.7140 H   0  0  0  0  0  0  0  0  0  0  0  0
  -28.2980   -9.4424   26.3878 H   0  0  0  0  0  0  0  0  0  0  0  0
  -27.5674  -10.0272   24.0823 H   0  0  0  0  0  0  0  0  0  0  0  0
  -27.9542  -11.8065   24.4132 H   0  0  0  0  0  0  0  0  0  0  0  0
  1  2  1  0
  1  6  1  0
  2  3  1  0
  2  7  1  0
  2  8  1  0
  3  4  1  0
  3  5  1  0
  3  9  1  0
  4  5  1  0
  4 10  1  0
  4 11  1  0
  5 12  1  0
  5 13  1  0
M  END
> <intraLJ>
-0.232    

> <intraEL>
1.557     

> <intraDihe>
2.185     

> <interLJ>
0.000     

> <interEJ>
0.000     

> <gridLJ>
-2.637    

> <gridEL>
0.000     

> <totalE>
0.873     

> <LGFE>
-2.637  

> <LE>
-0.527  

> <SMILES>
OCC1CC1

> <atom.dprop.GFE>
-0.72 -0.44 -0.52 -0.47 -0.48 0 0 0 0 0 0 0 0

> <atom.prop.CLASS>
MEOO PRPC PRPC PRPC PRPC NCLA NCLA NCLA NCLA NCLA NCLA NCLA NCLA

$$$$
