62_1
     RDKit          3D

 12 12  0  0  0  0  0  0  0  0999 V2000
    1.6154   -2.2469   -6.6301 O   0  0  0  0  0  0  0  0  0  0  0  0
    2.0771   -2.8808   -5.5832 C   0  0  0  0  0  0  0  0  0  0  0  0
    1.2849   -2.8631   -4.6658 O   0  0  0  0  0  0  0  0  0  0  0  0
    3.3871   -3.5038   -5.5950 C   0  0  0  0  0  0  0  0  0  0  0  0
    3.9488   -4.1967   -4.4954 C   0  0  0  0  0  0  0  0  0  0  0  0
    5.1924   -4.6943   -4.7510 C   0  0  0  0  0  0  0  0  0  0  0  0
    5.7151   -4.3263   -6.3570 S   0  0  0  0  0  0  0  0  0  0  0  0
    4.2393   -3.4956   -6.6790 C   0  0  0  0  0  0  0  0  0  0  0  0
    0.7507   -1.9733   -6.2724 H   0  0  0  0  0  0  0  0  0  0  0  0
    3.4521   -4.3175   -3.5654 H   0  0  0  0  0  0  0  0  0  0  0  0
    5.8139   -5.2450   -4.0934 H   0  0  0  0  0  0  0  0  0  0  0  0
    4.0676   -3.0489   -7.6252 H   0  0  0  0  0  0  0  0  0  0  0  0
  1  2  1  0
  1  9  1  0
  2  3  2  0
  2  4  1  0
  4  5  1  0
  4  8  2  0
  5  6  2  0
  5 10  1  0
  6  7  1  0
  6 11  1  0
  7  8  1  0
  8 12  1  0
M  END
> <intraLJ>
0.659     

> <intraEL>
-0.587    

> <intraDihe>
2.060     

> <interLJ>
0.000     

> <interEJ>
0.000     

> <gridLJ>
-4.060    

> <gridEL>
0.000     

> <totalE>
-1.928    

> <LGFE>
-4.060  

> <LE>
-0.508  

> <SMILES>
O=C(O)c1ccsc1

> <atom.dprop.GFE>
-1.8 0 -1.7 0.022 -0.15 -0.16 -0.28 -0.025 0 0 0 0

> <atom.prop.CLASS>
MEOO NCLA GENA GEHC GEHC GEHC PRPC GEHC NCLA NCLA NCLA NCLA

$$$$
