27_2
     RDKit          3D

 12 12  0  0  0  0  0  0  0  0999 V2000
   -5.9047    3.0953  -14.6199 N   0  0  0  0  0  0  0  0  0  0  0  0
   -6.8664    3.9055  -14.9929 C   0  0  0  0  0  0  0  0  0  0  0  0
   -7.0503    4.3610  -16.2108 N   0  0  0  0  0  0  0  0  0  0  0  0
   -8.1608    5.1863  -16.2174 C   0  0  0  0  0  0  0  0  0  0  0  0
   -8.6332    5.2067  -14.9538 C   0  0  0  0  0  0  0  0  0  0  0  0
   -7.7991    4.3928  -14.2071 N   0  0  0  0  0  0  0  0  0  0  0  0
   -5.8365    2.7893  -13.6420 H   0  0  0  0  0  0  0  0  0  0  0  0
   -5.2156    2.7620  -15.3036 H   0  0  0  0  0  0  0  0  0  0  0  0
   -6.4432    4.1175  -17.0056 H   0  0  0  0  0  0  0  0  0  0  0  0
   -8.5156    5.6774  -17.0905 H   0  0  0  0  0  0  0  0  0  0  0  0
   -9.4680    5.7184  -14.5414 H   0  0  0  0  0  0  0  0  0  0  0  0
   -7.8638    4.1788  -13.2031 H   0  0  0  0  0  0  0  0  0  0  0  0
  1  2  2  0
  1  7  1  0
  1  8  1  0
  2  3  1  0
  2  6  1  0
  3  4  1  0
  3  9  1  0
  4  5  2  0
  4 10  1  0
  5  6  1  0
  5 11  1  0
  6 12  1  0
M  CHG  1   1   1
M  END
> <intraLJ>
-0.384    

> <intraEL>
3.349     

> <intraDihe>
0.000     

> <interLJ>
0.000     

> <interEJ>
0.000     

> <gridLJ>
-4.990    

> <gridEL>
0.000     

> <totalE>
-2.025    

> <LGFE>
-4.990  

> <LE>
-0.832  

> <SMILES>
[NH2+]=c1[nH]cc[nH]1

> <atom.dprop.GFE>
-2.9 -2.3 0 0.022 0.26 0 0 0 0 0 0 0

> <atom.prop.CLASS>
MAMN MAMC NCLA GEHC GEHC NCLA NCLA NCLA NCLA NCLA NCLA NCLA

$$$$
