22
     RDKit          3D

 12 12  0  0  0  0  0  0  0  0999 V2000
   24.8941   16.1122   -7.2445 O   0  0  0  0  0  0  0  0  0  0  0  0
   24.7430   15.1870   -6.1721 S   0  0  0  0  0  0  0  0  0  0  0  0
   25.8564   14.4088   -5.7441 O   0  0  0  0  0  0  0  0  0  0  0  0
   23.9106   15.9053   -4.8216 C   0  0  0  0  0  0  0  0  0  0  0  0
   22.6341   14.9434   -5.0979 C   0  0  0  0  0  0  0  0  0  0  0  0
   23.3183   14.2069   -6.3715 C   0  0  0  0  0  0  0  0  0  0  0  0
   23.5755   16.9308   -4.8961 H   0  0  0  0  0  0  0  0  0  0  0  0
   24.2652   15.7076   -3.8197 H   0  0  0  0  0  0  0  0  0  0  0  0
   21.7501   15.5022   -5.3736 H   0  0  0  0  0  0  0  0  0  0  0  0
   22.4503   14.2604   -4.2797 H   0  0  0  0  0  0  0  0  0  0  0  0
   23.3729   13.1477   -6.1540 H   0  0  0  0  0  0  0  0  0  0  0  0
   22.6825   14.3706   -7.2315 H   0  0  0  0  0  0  0  0  0  0  0  0
  1  2  2  0
  2  3  2  0
  2  4  1  0
  2  6  1  0
  4  5  1  0
  4  7  1  0
  4  8  1  0
  5  6  1  0
  5  9  1  0
  5 10  1  0
  6 11  1  0
  6 12  1  0
M  END
> <intraLJ>
-0.830    

> <intraEL>
0.015     

> <intraDihe>
20.344    

> <interLJ>
0.000     

> <interEJ>
0.000     

> <gridLJ>
-2.344    

> <gridEL>
0.000     

> <totalE>
17.185    

> <LGFE>
-2.344  

> <LE>
-0.391  

> <SMILES>
O=S1(=O)CCC1

> <atom.dprop.GFE>
-0.76 0 -0.46 -0.31 -0.51 -0.31 0 0 0 0 0 0

> <atom.prop.CLASS>
GENA NCLA GENA PRPC PRPC PRPC NCLA NCLA NCLA NCLA NCLA NCLA

$$$$
