11_1
     RDKit          3D

 11 11  0  0  0  0  0  0  0  0999 V2000
  -38.3011   -5.5696   23.5196 O   0  0  0  0  0  0  0  0  0  0  0  0
  -38.4993   -4.7393   24.3835 C   0  0  0  0  0  0  0  0  0  0  0  0
  -37.6907   -4.4787   25.6129 C   0  0  0  0  0  0  0  0  0  0  0  0
  -38.1860   -3.0619   25.9712 C   0  0  0  0  0  0  0  0  0  0  0  0
  -39.5263   -2.9709   25.3831 O   0  0  0  0  0  0  0  0  0  0  0  0
  -39.5262   -3.8918   24.3324 N   0  0  0  0  0  0  0  0  0  0  0  0
  -36.6335   -4.4874   25.3907 H   0  0  0  0  0  0  0  0  0  0  0  0
  -38.0035   -5.1751   26.3761 H   0  0  0  0  0  0  0  0  0  0  0  0
  -37.5413   -2.3119   25.5092 H   0  0  0  0  0  0  0  0  0  0  0  0
  -38.2229   -2.9128   27.0517 H   0  0  0  0  0  0  0  0  0  0  0  0
  -40.2296   -3.8987   23.5784 H   0  0  0  0  0  0  0  0  0  0  0  0
  1  2  2  0
  2  3  1  0
  2  6  1  0
  3  4  1  0
  3  7  1  0
  3  8  1  0
  4  5  1  0
  4  9  1  0
  4 10  1  0
  5  6  1  0
  6 11  1  0
M  END
> <intraLJ>
-0.418    

> <intraEL>
-2.154    

> <intraDihe>
5.561     

> <interLJ>
0.000     

> <interEJ>
0.000     

> <gridLJ>
-2.776    

> <gridEL>
0.000     

> <totalE>
0.214     

> <LGFE>
-2.776  

> <LE>
-0.463  

> <SMILES>
O=C1CCON1

> <atom.dprop.GFE>
-0.46 -0.22 -0.26 -0.41 -0.71 -0.72 0 0 0 0 0

> <atom.prop.CLASS>
GENA GEHC PRPC PRPC GENA GEND NCLA NCLA NCLA NCLA NCLA

$$$$
