28_1
     RDKit          3D

  9  9  0  0  0  0  0  0  0  0999 V2000
  -14.5668    6.7196  -17.9679 C   0  0  0  0  0  0  0  0  0  0  0  0
  -14.4677    8.0623  -17.8398 C   0  0  0  0  0  0  0  0  0  0  0  0
  -14.8551    8.3337  -16.5818 N   0  0  0  0  0  0  0  0  0  0  0  0
  -15.1744    7.1615  -15.9890 C   0  0  0  0  0  0  0  0  0  0  0  0
  -15.0090    6.1633  -16.8054 N   0  0  0  0  0  0  0  0  0  0  0  0
  -14.3376    6.1607  -18.8403 H   0  0  0  0  0  0  0  0  0  0  0  0
  -14.1629    8.8072  -18.5280 H   0  0  0  0  0  0  0  0  0  0  0  0
  -14.9039    9.2647  -16.1362 H   0  0  0  0  0  0  0  0  0  0  0  0
  -15.5092    7.1306  -14.9825 H   0  0  0  0  0  0  0  0  0  0  0  0
  1  2  2  0
  1  5  1  0
  1  6  1  0
  2  3  1  0
  2  7  1  0
  3  4  1  0
  3  8  1  0
  4  5  2  0
  4  9  1  0
M  END
> <intraLJ>
-0.307    

> <intraEL>
-0.294    

> <intraDihe>
0.000     

> <interLJ>
0.000     

> <interEJ>
0.000     

> <gridLJ>
-1.957    

> <gridEL>
0.000     

> <totalE>
-2.558    

> <LGFE>
-1.957  

> <LE>
-0.391  

> <SMILES>
c1c[nH]cn1

> <atom.dprop.GFE>
-0.16 -0.14 -0.46 -0.15 -1.1 0 0 0 0

> <atom.prop.CLASS>
GEHC GEHC GEND GEHC GENA NCLA NCLA NCLA NCLA

$$$$
