72_1
     RDKit          3D

 14 14  0  0  0  0  0  0  0  0999 V2000
   21.5412   14.3500   -5.6118 N   0  0  0  0  0  0  0  0  0  0  0  0
   20.4673   14.1902   -4.6483 C   0  0  0  0  0  0  0  0  0  0  0  0
   19.2230   14.5920   -5.4488 C   0  0  0  0  0  0  0  0  0  0  0  0
   18.9309   16.0628   -5.5295 C   0  0  0  0  0  0  0  0  0  0  0  0
   18.0876   15.1645   -4.6517 C   0  0  0  0  0  0  0  0  0  0  0  0
   22.4302   14.2986   -5.1338 H   0  0  0  0  0  0  0  0  0  0  0  0
   21.4328   15.2552   -6.0476 H   0  0  0  0  0  0  0  0  0  0  0  0
   20.6078   14.8630   -3.8115 H   0  0  0  0  0  0  0  0  0  0  0  0
   20.3855   13.1506   -4.3525 H   0  0  0  0  0  0  0  0  0  0  0  0
   18.9935   13.9666   -6.3025 H   0  0  0  0  0  0  0  0  0  0  0  0
   18.4724   16.4105   -6.4461 H   0  0  0  0  0  0  0  0  0  0  0  0
   19.6118   16.7343   -5.0234 H   0  0  0  0  0  0  0  0  0  0  0  0
   18.2288   15.2626   -3.5829 H   0  0  0  0  0  0  0  0  0  0  0  0
   17.0899   14.9408   -5.0063 H   0  0  0  0  0  0  0  0  0  0  0  0
  1  2  1  0
  1  6  1  0
  1  7  1  0
  2  3  1  0
  2  8  1  0
  2  9  1  0
  3  4  1  0
  3  5  1  0
  3 10  1  0
  4  5  1  0
  4 11  1  0
  4 12  1  0
  5 13  1  0
  5 14  1  0
M  END
> <intraLJ>
0.087     

> <intraEL>
1.501     

> <intraDihe>
2.193     

> <interLJ>
0.000     

> <interEJ>
0.000     

> <gridLJ>
-3.054    

> <gridEL>
0.000     

> <totalE>
0.727     

> <LGFE>
-3.054  

> <LE>
-0.611  

> <SMILES>
NCC1CC1

> <atom.dprop.GFE>
-0.49 -0.68 -0.67 -0.62 -0.59 0 0 0 0 0 0 0 0 0

> <atom.prop.CLASS>
GEND PRPC PRPC PRPC PRPC NCLA NCLA NCLA NCLA NCLA NCLA NCLA NCLA NCLA

$$$$
