50_1
     RDKit          3D

 12 11  0  0  1  0  0  0  0  0999 V2000
    8.0651   17.1297  -10.5711 C   0  0  0  0  0  0  0  0  0  0  0  0
    9.5091   16.9684  -10.0980 C   0  0  0  0  0  0  0  0  0  0  0  0
   10.1931   16.2608  -11.1450 N   0  0  0  0  0  0  0  0  0  0  0  0
    9.5226   16.0490   -8.9423 C   0  0  0  0  0  0  0  0  0  0  0  0
    9.5331   15.3064   -8.0098 C   0  0  0  0  0  0  0  0  0  0  0  0
    7.4991   17.6242   -9.7809 H   0  0  0  0  0  0  0  0  0  0  0  0
    7.6388   16.1491  -10.7886 H   0  0  0  0  0  0  0  0  0  0  0  0
    8.0744   17.7469  -11.4691 H   0  0  0  0  0  0  0  0  0  0  0  0
    9.9721   17.9200   -9.8652 H   0  0  0  0  0  0  0  0  0  0  0  0
    9.7031   15.3877  -11.2693 H   0  0  0  0  0  0  0  0  0  0  0  0
   11.1154   16.0437  -10.7987 H   0  0  0  0  0  0  0  0  0  0  0  0
    9.5433   14.6608   -7.1985 H   0  0  0  0  0  0  0  0  0  0  0  0
  1  2  1  0
  1  6  1  0
  1  7  1  0
  1  8  1  0
  2  3  1  0
  2  4  1  0
  2  9  1  0
  3 10  1  0
  3 11  1  0
  4  5  3  0
  5 12  1  0
M  END
> <intraLJ>
0.883     

> <intraEL>
-1.894    

> <intraDihe>
0.827     

> <interLJ>
0.000     

> <interEJ>
0.000     

> <gridLJ>
-2.016    

> <gridEL>
0.000     

> <totalE>
-2.200    

> <LGFE>
-2.016  

> <LE>
-0.403  

> <SMILES>
C#CC(C)N

> <atom.dprop.GFE>
-0.28 -0.27 -0.87 -0.34 -0.25 0 0 0 0 0 0 0

> <atom.prop.CLASS>
PRPC PRPC GEND PRPC PRPC NCLA NCLA NCLA NCLA NCLA NCLA NCLA

$$$$
