57_2
     RDKit          3D

 14 14  0  0  0  0  0  0  0  0999 V2000
    0.2267   -7.5349  -30.7704 O   0  0  0  0  0  0  0  0  0  0  0  0
    1.3193   -7.2245  -31.2984 C   0  0  0  0  0  0  0  0  0  0  0  0
    2.4144   -7.3556  -30.7032 O   0  0  0  0  0  0  0  0  0  0  0  0
    1.3219   -6.7349  -32.7348 C   0  0  0  0  0  0  0  0  0  0  0  0
    2.3175   -5.5681  -32.9966 C   0  0  0  0  0  0  0  0  0  0  0  0
    1.2159   -4.9551  -33.9094 C   0  0  0  0  0  0  0  0  0  0  0  0
    0.1736   -5.7340  -33.0556 C   0  0  0  0  0  0  0  0  0  0  0  0
    1.4048   -7.5559  -33.4359 H   0  0  0  0  0  0  0  0  0  0  0  0
    3.2157   -5.8622  -33.5234 H   0  0  0  0  0  0  0  0  0  0  0  0
    2.5083   -4.9614  -32.1206 H   0  0  0  0  0  0  0  0  0  0  0  0
    1.2717   -5.3162  -34.9293 H   0  0  0  0  0  0  0  0  0  0  0  0
    1.1303   -3.8797  -33.8377 H   0  0  0  0  0  0  0  0  0  0  0  0
   -0.1566   -5.1687  -32.1931 H   0  0  0  0  0  0  0  0  0  0  0  0
   -0.6376   -6.1620  -33.6288 H   0  0  0  0  0  0  0  0  0  0  0  0
  1  2  2  0
  2  3  1  0
  2  4  1  0
  4  5  1  0
  4  7  1  0
  4  8  1  0
  5  6  1  0
  5  9  1  0
  5 10  1  0
  6  7  1  0
  6 11  1  0
  6 12  1  0
  7 13  1  0
  7 14  1  0
M  CHG  1   3  -1
M  END
> <intraLJ>
0.196     

> <intraEL>
2.089     

> <intraDihe>
17.601    

> <interLJ>
0.000     

> <interEJ>
0.000     

> <gridLJ>
-2.029    

> <gridEL>
0.000     

> <totalE>
17.856    

> <LGFE>
-2.029  

> <LE>
-0.290  

> <SMILES>
O=C([O-])C1CCC1

> <atom.dprop.GFE>
0 -1.5 0 -0.073 -0.17 -0.2 -0.11 0 0 0 0 0 0 0

> <atom.prop.CLASS>
NCLA ACEC NCLA PRPC PRPC PRPC PRPC NCLA NCLA NCLA NCLA NCLA NCLA NCLA

$$$$
