29_1
     RDKit          3D

 12 12  0  0  0  0  0  0  0  0999 V2000
   19.8453   -5.7500  -20.8771 N   0  0  0  0  0  0  0  0  0  0  0  0
   18.7207   -4.9685  -20.6444 C   0  0  0  0  0  0  0  0  0  0  0  0
   17.5591   -5.0473  -21.3400 C   0  0  0  0  0  0  0  0  0  0  0  0
   16.4272   -3.9158  -20.7161 S   0  0  0  0  0  0  0  0  0  0  0  0
   17.6488   -3.4579  -19.5825 C   0  0  0  0  0  0  0  0  0  0  0  0
   17.4054   -2.4818  -18.6516 N   0  0  0  0  0  0  0  0  0  0  0  0
   18.7892   -4.0744  -19.6347 N   0  0  0  0  0  0  0  0  0  0  0  0
   20.4465   -5.6716  -20.0460 H   0  0  0  0  0  0  0  0  0  0  0  0
   19.5751   -6.7230  -21.0584 H   0  0  0  0  0  0  0  0  0  0  0  0
   17.3389   -5.6839  -22.1542 H   0  0  0  0  0  0  0  0  0  0  0  0
   18.0529   -2.5633  -17.8587 H   0  0  0  0  0  0  0  0  0  0  0  0
   16.4129   -2.3952  -18.4044 H   0  0  0  0  0  0  0  0  0  0  0  0
  1  2  1  0
  1  8  1  0
  1  9  1  0
  2  3  2  0
  2  7  1  0
  3  4  1  0
  3 10  1  0
  4  5  1  0
  5  6  1  0
  5  7  2  0
  6 11  1  0
  6 12  1  0
M  END
> <intraLJ>
-0.273    

> <intraEL>
-13.389   

> <intraDihe>
3.347     

> <interLJ>
0.000     

> <interEJ>
0.000     

> <gridLJ>
-2.468    

> <gridEL>
0.000     

> <totalE>
-12.783   

> <LGFE>
-2.468  

> <LE>
-0.353  

> <SMILES>
Nc1csc(N)n1

> <atom.dprop.GFE>
-0.58 -0.14 -0.049 -0.16 -0.12 -0.78 -0.64 0 0 0 0 0

> <atom.prop.CLASS>
GEND GEHC GEHC PRPC GEHC GEND GENA NCLA NCLA NCLA NCLA NCLA

$$$$
