35_3
     RDKit          3D

 10 10  0  0  0  0  0  0  0  0999 V2000
  -27.1260   14.5393   23.9880 N   0  0  0  0  0  0  0  0  0  0  0  0
  -28.2850   15.1938   24.3544 C   0  0  0  0  0  0  0  0  0  0  0  0
  -28.8834   15.0396   25.4773 N   0  0  0  0  0  0  0  0  0  0  0  0
  -29.9472   15.8727   25.3661 C   0  0  0  0  0  0  0  0  0  0  0  0
  -30.0323   16.5238   24.2463 N   0  0  0  0  0  0  0  0  0  0  0  0
  -28.9433   16.0810   23.5941 N   0  0  0  0  0  0  0  0  0  0  0  0
  -27.0277   14.3091   22.9916 H   0  0  0  0  0  0  0  0  0  0  0  0
  -26.9201   13.7560   24.6266 H   0  0  0  0  0  0  0  0  0  0  0  0
  -30.6646   15.9872   26.1420 H   0  0  0  0  0  0  0  0  0  0  0  0
  -28.6446   16.3846   22.6540 H   0  0  0  0  0  0  0  0  0  0  0  0
  1  2  1  0
  1  7  1  0
  1  8  1  0
  2  3  2  0
  2  6  1  0
  3  4  1  0
  4  5  2  0
  4  9  1  0
  5  6  1  0
  6 10  1  0
M  END
> <intraLJ>
-0.206    

> <intraEL>
-6.323    

> <intraDihe>
2.580     

> <interLJ>
0.000     

> <interEJ>
0.000     

> <gridLJ>
-2.759    

> <gridEL>
0.000     

> <totalE>
-6.708    

> <LGFE>
-2.759  

> <LE>
-0.460  

> <SMILES>
Nc1ncn[nH]1

> <atom.dprop.GFE>
-0.35 -0.18 -1 -0.11 -0.53 -0.59 0 0 0 0

> <atom.prop.CLASS>
GEND GEHC GENA GEHC GENA GEND NCLA NCLA NCLA NCLA

$$$$
