24_2
     RDKit          3D

 17 17  0  0  0  0  0  0  0  0999 V2000
   11.3717   -6.2118   -7.5036 N   0  0  0  0  0  0  0  0  0  0  0  0
   10.7771   -5.8497   -8.5889 C   0  0  0  0  0  0  0  0  0  0  0  0
   11.2651   -6.2418   -9.7342 N   0  0  0  0  0  0  0  0  0  0  0  0
   10.7025   -5.8427  -11.0311 C   0  0  0  0  0  0  0  0  0  0  0  0
    9.2059   -5.6125  -10.7988 C   0  0  0  0  0  0  0  0  0  0  0  0
    8.9852   -4.5950   -9.6753 C   0  0  0  0  0  0  0  0  0  0  0  0
    9.7044   -5.1117   -8.5036 N   0  0  0  0  0  0  0  0  0  0  0  0
   10.9867   -5.9415   -6.5941 H   0  0  0  0  0  0  0  0  0  0  0  0
   12.1953   -6.8182   -7.5481 H   0  0  0  0  0  0  0  0  0  0  0  0
   12.1383   -6.7759   -9.7184 H   0  0  0  0  0  0  0  0  0  0  0  0
   10.8410   -6.6335  -11.7734 H   0  0  0  0  0  0  0  0  0  0  0  0
   11.1738   -4.9241  -11.3898 H   0  0  0  0  0  0  0  0  0  0  0  0
    8.7227   -6.5570  -10.5405 H   0  0  0  0  0  0  0  0  0  0  0  0
    8.7528   -5.2387  -11.7176 H   0  0  0  0  0  0  0  0  0  0  0  0
    7.9149   -4.5057   -9.4663 H   0  0  0  0  0  0  0  0  0  0  0  0
    9.3779   -3.6174   -9.9700 H   0  0  0  0  0  0  0  0  0  0  0  0
    9.4125   -4.8045   -7.5705 H   0  0  0  0  0  0  0  0  0  0  0  0
  1  2  2  0
  1  8  1  0
  1  9  1  0
  2  3  1  0
  2  7  1  0
  3  4  1  0
  3 10  1  0
  4  5  1  0
  4 11  1  0
  4 12  1  0
  5  6  1  0
  5 13  1  0
  5 14  1  0
  6  7  1  0
  6 15  1  0
  6 16  1  0
  7 17  1  0
M  CHG  1   1   1
M  END
> <intraLJ>
2.615     

> <intraEL>
-18.178   

> <intraDihe>
0.248     

> <interLJ>
0.000     

> <interEJ>
0.000     

> <gridLJ>
-2.392    

> <gridEL>
0.000     

> <totalE>
-17.707   

> <LGFE>
-2.392  

> <LE>
-0.342  

> <SMILES>
[NH2+]=C1NCCCN1

> <atom.dprop.GFE>
0 -1.7 0 -0.28 -0.27 -0.14 0 0 0 0 0 0 0 0 0 0 0

> <atom.prop.CLASS>
NCLA MAMC NCLA PRPC PRPC PRPC NCLA NCLA NCLA NCLA NCLA NCLA NCLA NCLA NCLA NCLA NCLA

$$$$
