11_1
     RDKit          3D

 11 11  0  0  0  0  0  0  0  0999 V2000
  -25.0847    4.1712   20.4654 O   0  0  0  0  0  0  0  0  0  0  0  0
  -24.1387    3.6330   21.0043 C   0  0  0  0  0  0  0  0  0  0  0  0
  -22.9036    3.0861   20.3650 C   0  0  0  0  0  0  0  0  0  0  0  0
  -21.9706    3.0112   21.5918 C   0  0  0  0  0  0  0  0  0  0  0  0
  -22.8705    2.8928   22.7435 O   0  0  0  0  0  0  0  0  0  0  0  0
  -24.0754    3.4624   22.3243 N   0  0  0  0  0  0  0  0  0  0  0  0
  -22.5227    3.7639   19.6148 H   0  0  0  0  0  0  0  0  0  0  0  0
  -23.1195    2.0887   20.0132 H   0  0  0  0  0  0  0  0  0  0  0  0
  -21.3950    3.9344   21.6812 H   0  0  0  0  0  0  0  0  0  0  0  0
  -21.2990    2.1531   21.5312 H   0  0  0  0  0  0  0  0  0  0  0  0
  -24.8271    3.7490   22.9694 H   0  0  0  0  0  0  0  0  0  0  0  0
  1  2  2  0
  2  3  1  0
  2  6  1  0
  3  4  1  0
  3  7  1  0
  3  8  1  0
  4  5  1  0
  4  9  1  0
  4 10  1  0
  5  6  1  0
  6 11  1  0
M  END
> <intraLJ>
-0.418    

> <intraEL>
-2.154    

> <intraDihe>
5.561     

> <interLJ>
0.000     

> <interEJ>
0.000     

> <gridLJ>
-3.606    

> <gridEL>
0.000     

> <totalE>
-0.616    

> <LGFE>
-3.606  

> <LE>
-0.601  

> <SMILES>
O=C1CCON1

> <atom.dprop.GFE>
-0.8 0.77 -0.12 -0.19 -1.9 -1.4 0 0 0 0 0

> <atom.prop.CLASS>
GENA GEHC PRPC PRPC GENA GEND NCLA NCLA NCLA NCLA NCLA

$$$$
