17_2
     RDKit          3D

 16 16  0  0  0  0  0  0  0  0999 V2000
   21.8954   -0.5789  -21.1863 N   0  0  0  0  0  0  0  0  0  0  0  0
   22.9627    0.0876  -20.7083 C   0  0  0  0  0  0  0  0  0  0  0  0
   23.5364    0.8257  -21.4781 O   0  0  0  0  0  0  0  0  0  0  0  0
   23.4886   -0.0324  -19.2582 C   0  0  0  0  0  0  0  0  0  0  0  0
   22.9168    0.9417  -18.3410 N   0  0  0  0  0  0  0  0  0  0  0  0
   24.9138   -0.4167  -19.0194 C   0  0  0  0  0  0  0  0  0  0  0  0
   23.7890   -1.3840  -18.6931 C   0  0  0  0  0  0  0  0  0  0  0  0
   21.6421   -0.4236  -22.1511 H   0  0  0  0  0  0  0  0  0  0  0  0
   21.3559   -1.2137  -20.6211 H   0  0  0  0  0  0  0  0  0  0  0  0
   22.2488    1.5100  -18.9682 H   0  0  0  0  0  0  0  0  0  0  0  0
   23.7052    1.5483  -17.9675 H   0  0  0  0  0  0  0  0  0  0  0  0
   22.3865    0.4165  -17.5858 H   0  0  0  0  0  0  0  0  0  0  0  0
   25.4255    0.0237  -18.1725 H   0  0  0  0  0  0  0  0  0  0  0  0
   25.5149   -0.6522  -19.8895 H   0  0  0  0  0  0  0  0  0  0  0  0
   23.6776   -2.2344  -19.3555 H   0  0  0  0  0  0  0  0  0  0  0  0
   23.5943   -1.5518  -17.6413 H   0  0  0  0  0  0  0  0  0  0  0  0
  1  2  1  0
  1  8  1  0
  1  9  1  0
  2  3  2  0
  2  4  1  0
  4  5  1  0
  4  6  1  0
  4  7  1  0
  5 10  1  0
  5 11  1  0
  5 12  1  0
  6  7  1  0
  6 13  1  0
  6 14  1  0
  7 15  1  0
  7 16  1  0
M  CHG  1   5   1
M  END
> <intraLJ>
-0.435    

> <intraEL>
0.141     

> <intraDihe>
6.289     

> <interLJ>
0.000     

> <interEJ>
0.000     

> <gridLJ>
-4.521    

> <gridEL>
0.000     

> <totalE>
1.474     

> <LGFE>
-4.521  

> <LE>
-0.646  

> <SMILES>
NC(=O)C1([NH3+])CC1

> <atom.dprop.GFE>
-0.72 0 -0.62 -0.32 -2.4 -0.24 -0.16 0 0 0 0 0 0 0 0 0

> <atom.prop.CLASS>
GEND NCLA GENA PRPC MAMN PRPC PRPC NCLA NCLA NCLA NCLA NCLA NCLA NCLA NCLA NCLA

$$$$
