70_2
     RDKit          3D

 12 12  0  0  0  0  0  0  0  0999 V2000
   -8.5461   -8.8445    3.3249 N   0  0  0  0  0  0  0  0  0  0  0  0
   -7.4102   -8.2929    2.8131 C   0  0  0  0  0  0  0  0  0  0  0  0
   -7.1256   -7.0130    2.4382 C   0  0  0  0  0  0  0  0  0  0  0  0
   -5.8061   -6.9590    1.9749 C   0  0  0  0  0  0  0  0  0  0  0  0
   -5.1048   -6.0191    1.5280 O   0  0  0  0  0  0  0  0  0  0  0  0
   -5.3127   -8.2221    2.0830 N   0  0  0  0  0  0  0  0  0  0  0  0
   -6.3501   -9.0843    2.6266 N   0  0  0  0  0  0  0  0  0  0  0  0
   -9.4142   -8.3059    3.1941 H   0  0  0  0  0  0  0  0  0  0  0  0
   -8.6380   -9.8654    3.2399 H   0  0  0  0  0  0  0  0  0  0  0  0
   -7.7827   -6.1904    2.4874 H   0  0  0  0  0  0  0  0  0  0  0  0
   -4.3508   -8.4999    1.8293 H   0  0  0  0  0  0  0  0  0  0  0  0
   -6.2517  -10.0878    2.8644 H   0  0  0  0  0  0  0  0  0  0  0  0
  1  2  1  0
  1  8  1  0
  1  9  1  0
  2  3  2  0
  2  7  1  0
  3  4  1  0
  3 10  1  0
  4  5  2  0
  4  6  1  0
  6  7  1  0
  6 11  1  0
  7 12  1  0
M  END
> <intraLJ>
-0.628    

> <intraEL>
-11.018   

> <intraDihe>
1.030     

> <interLJ>
0.000     

> <interEJ>
0.000     

> <gridLJ>
-4.246    

> <gridEL>
0.000     

> <totalE>
-14.861   

> <LGFE>
-4.246  

> <LE>
-0.607  

> <SMILES>
Nc1cc(=O)[nH][nH]1

> <atom.dprop.GFE>
-0.84 -0.28 -0.24 -0.23 -1 -0.82 -0.84 0 0 0 0 0

> <atom.prop.CLASS>
GEND GEHC GEHC GEHC GENA GEND GEND NCLA NCLA NCLA NCLA NCLA

$$$$
