64_2
     RDKit          3D

 15 15  0  0  0  0  0  0  0  0999 V2000
  -24.0690    4.8467    2.7148 N   0  0  0  0  0  0  0  0  0  0  0  0
  -23.0524    3.8143    2.7850 C   0  0  0  0  0  0  0  0  0  0  0  0
  -22.4121    4.1270    4.1099 C   0  0  0  0  0  0  0  0  0  0  0  0
  -21.3466    5.0358    4.2821 C   0  0  0  0  0  0  0  0  0  0  0  0
  -20.9640    5.1627    5.5859 C   0  0  0  0  0  0  0  0  0  0  0  0
  -21.9042    4.1670    6.6353 S   0  0  0  0  0  0  0  0  0  0  0  0
  -22.8177    3.5759    5.2945 C   0  0  0  0  0  0  0  0  0  0  0  0
  -24.5896    4.7626    1.8552 H   0  0  0  0  0  0  0  0  0  0  0  0
  -23.5911    5.7337    2.7883 H   0  0  0  0  0  0  0  0  0  0  0  0
  -24.6553    4.7371    3.5295 H   0  0  0  0  0  0  0  0  0  0  0  0
  -22.3178    3.9265    1.9944 H   0  0  0  0  0  0  0  0  0  0  0  0
  -23.4974    2.8257    2.8229 H   0  0  0  0  0  0  0  0  0  0  0  0
  -20.8708    5.5672    3.4959 H   0  0  0  0  0  0  0  0  0  0  0  0
  -20.1893    5.7738    5.9759 H   0  0  0  0  0  0  0  0  0  0  0  0
  -23.5881    2.8640    5.4576 H   0  0  0  0  0  0  0  0  0  0  0  0
  1  2  1  0
  1  8  1  0
  1  9  1  0
  1 10  1  0
  2  3  1  0
  2 11  1  0
  2 12  1  0
  3  4  1  0
  3  7  2  0
  4  5  2  0
  4 13  1  0
  5  6  1  0
  5 14  1  0
  6  7  1  0
  7 15  1  0
M  CHG  1   1   1
M  END
> <intraLJ>
1.074     

> <intraEL>
2.883     

> <intraDihe>
9.750     

> <interLJ>
0.000     

> <interEJ>
0.000     

> <gridLJ>
-3.316    

> <gridEL>
0.000     

> <totalE>
10.390    

> <LGFE>
-3.316  

> <LE>
-0.474  

> <SMILES>
[NH3+]Cc1ccsc1

> <atom.dprop.GFE>
-1.4 -0.56 -0.32 -0.052 -0.25 -0.44 -0.25 0 0 0 0 0 0 0 0

> <atom.prop.CLASS>
MAMN PRPC GEHC GEHC GEHC PRPC GEHC NCLA NCLA NCLA NCLA NCLA NCLA NCLA NCLA

$$$$
