70_2
     RDKit          3D

 12 12  0  0  0  0  0  0  0  0999 V2000
   21.5503    7.0439   -7.9508 N   0  0  0  0  0  0  0  0  0  0  0  0
   20.2663    6.8414   -7.5421 C   0  0  0  0  0  0  0  0  0  0  0  0
   19.7645    6.3612   -6.3685 C   0  0  0  0  0  0  0  0  0  0  0  0
   18.3671    6.3509   -6.4433 C   0  0  0  0  0  0  0  0  0  0  0  0
   17.4793    5.9991   -5.6289 O   0  0  0  0  0  0  0  0  0  0  0  0
   18.0483    6.8335   -7.6746 N   0  0  0  0  0  0  0  0  0  0  0  0
   19.2770    7.1521   -8.3844 N   0  0  0  0  0  0  0  0  0  0  0  0
   22.2812    6.5453   -7.4235 H   0  0  0  0  0  0  0  0  0  0  0  0
   21.7021    7.1142   -8.9655 H   0  0  0  0  0  0  0  0  0  0  0  0
   20.3271    6.0488   -5.5337 H   0  0  0  0  0  0  0  0  0  0  0  0
   17.0844    6.9598   -8.0237 H   0  0  0  0  0  0  0  0  0  0  0  0
   19.3489    7.5811   -9.3246 H   0  0  0  0  0  0  0  0  0  0  0  0
  1  2  1  0
  1  8  1  0
  1  9  1  0
  2  3  2  0
  2  7  1  0
  3  4  1  0
  3 10  1  0
  4  5  2  0
  4  6  1  0
  6  7  1  0
  6 11  1  0
  7 12  1  0
M  END
> <intraLJ>
-0.628    

> <intraEL>
-11.018   

> <intraDihe>
1.030     

> <interLJ>
0.000     

> <interEJ>
0.000     

> <gridLJ>
-4.158    

> <gridEL>
0.000     

> <totalE>
-14.774   

> <LGFE>
-4.158  

> <LE>
-0.594  

> <SMILES>
Nc1cc(=O)[nH][nH]1

> <atom.dprop.GFE>
-1.1 -0.26 -0.19 -0.22 -0.77 -0.75 -0.83 0 0 0 0 0

> <atom.prop.CLASS>
GEND GEHC GEHC GEHC GENA GEND GEND NCLA NCLA NCLA NCLA NCLA

$$$$
