49_2
     RDKit          3D

 19 19  0  0  1  0  0  0  0  0999 V2000
  -31.9958   -8.2175   20.9443 O   0  0  0  0  0  0  0  0  0  0  0  0
  -33.1072   -7.6653   20.2487 C   0  0  0  0  0  0  0  0  0  0  0  0
  -32.5996   -6.5589   19.3056 C   0  0  0  0  0  0  0  0  0  0  0  0
  -33.6613   -5.8845   18.4376 C   0  0  0  0  0  0  0  0  0  0  0  0
  -32.8682   -5.4069   17.2021 C   0  0  0  0  0  0  0  0  0  0  0  0
  -31.4455   -5.9136   17.4363 C   0  0  0  0  0  0  0  0  0  0  0  0
  -31.6093   -7.0594   18.3421 N   0  0  0  0  0  0  0  0  0  0  0  0
  -32.2980   -8.8442   21.6156 H   0  0  0  0  0  0  0  0  0  0  0  0
  -33.5998   -8.4488   19.6683 H   0  0  0  0  0  0  0  0  0  0  0  0
  -33.8236   -7.2388   20.9525 H   0  0  0  0  0  0  0  0  0  0  0  0
  -32.1267   -5.7865   19.9194 H   0  0  0  0  0  0  0  0  0  0  0  0
  -34.4238   -6.6040   18.1322 H   0  0  0  0  0  0  0  0  0  0  0  0
  -34.1212   -5.0495   18.9679 H   0  0  0  0  0  0  0  0  0  0  0  0
  -32.8756   -4.3183   17.1171 H   0  0  0  0  0  0  0  0  0  0  0  0
  -33.2805   -5.8533   16.2947 H   0  0  0  0  0  0  0  0  0  0  0  0
  -30.8795   -5.1220   17.9376 H   0  0  0  0  0  0  0  0  0  0  0  0
  -30.9446   -6.1805   16.5013 H   0  0  0  0  0  0  0  0  0  0  0  0
  -30.7720   -7.3660   18.8260 H   0  0  0  0  0  0  0  0  0  0  0  0
  -32.0133   -7.8450   17.8558 H   0  0  0  0  0  0  0  0  0  0  0  0
  1  2  1  0
  1  8  1  0
  2  3  1  0
  2  9  1  0
  2 10  1  0
  3  4  1  0
  3  7  1  0
  3 11  1  0
  4  5  1  0
  4 12  1  0
  4 13  1  0
  5  6  1  0
  5 14  1  0
  5 15  1  0
  6  7  1  0
  6 16  1  0
  6 17  1  0
  7 18  1  0
  7 19  1  0
M  CHG  1   7   1
M  END
> <intraLJ>
0.790     

> <intraEL>
7.776     

> <intraDihe>
8.374     

> <interLJ>
0.000     

> <interEJ>
0.000     

> <gridLJ>
-3.922    

> <gridEL>
0.000     

> <totalE>
13.018    

> <LGFE>
-3.922  

> <LE>
-0.560  

> <SMILES>
OCC1CCC[NH2+]1

> <atom.dprop.GFE>
-0.41 -0.18 -0.18 -0.19 -0.15 -0.29 -2.5 0 0 0 0 0 0 0 0 0 0 0 0

> <atom.prop.CLASS>
MEOO PRPC PRPC PRPC PRPC PRPC MAMN NCLA NCLA NCLA NCLA NCLA NCLA NCLA NCLA NCLA NCLA NCLA NCLA

$$$$
