59_1
     RDKit          3D

 10  9  0  0  0  0  0  0  0  0999 V2000
  -25.0663    7.2993   10.4615 C   0  0  0  0  0  0  0  0  0  0  0  0
  -24.5813    8.1706   11.5998 C   0  0  0  0  0  0  0  0  0  0  0  0
  -23.7080    8.9824   11.3575 O   0  0  0  0  0  0  0  0  0  0  0  0
  -25.1713    8.0148   12.9456 C   0  0  0  0  0  0  0  0  0  0  0  0
  -26.0167    7.1933   13.2445 O   0  0  0  0  0  0  0  0  0  0  0  0
  -24.8259    8.7704   13.9732 O   0  0  0  0  0  0  0  0  0  0  0  0
  -26.1244    7.4899   10.3483 H   0  0  0  0  0  0  0  0  0  0  0  0
  -24.8867    6.2728   10.7519 H   0  0  0  0  0  0  0  0  0  0  0  0
  -24.5104    7.5711    9.5751 H   0  0  0  0  0  0  0  0  0  0  0  0
  -25.3919    8.4049   14.6790 H   0  0  0  0  0  0  0  0  0  0  0  0
  1  2  1  0
  1  7  1  0
  1  8  1  0
  1  9  1  0
  2  3  2  0
  2  4  1  0
  4  5  2  0
  4  6  1  0
  6 10  1  0
M  END
> <intraLJ>
-0.537    

> <intraEL>
-0.051    

> <intraDihe>
2.121     

> <interLJ>
0.000     

> <interEJ>
0.000     

> <gridLJ>
-2.738    

> <gridEL>
0.000     

> <totalE>
-1.206    

> <LGFE>
-2.738  

> <LE>
-0.456  

> <SMILES>
CC(=O)C(=O)O

> <atom.dprop.GFE>
-0.48 0 -1.1 0 -0.55 -0.58 0 0 0 0

> <atom.prop.CLASS>
PRPC NCLA GENA NCLA GENA MEOO NCLA NCLA NCLA NCLA

$$$$
