70_1
     RDKit          3D

 12 12  0  0  0  0  0  0  0  0999 V2000
    9.0552   17.1288  -11.6436 N   0  0  0  0  0  0  0  0  0  0  0  0
    9.5995   16.6126  -10.4497 C   0  0  0  0  0  0  0  0  0  0  0  0
   10.7180   16.9782   -9.7830 C   0  0  0  0  0  0  0  0  0  0  0  0
   10.7707   16.1405   -8.6780 C   0  0  0  0  0  0  0  0  0  0  0  0
   11.6984   16.1086   -7.7138 O   0  0  0  0  0  0  0  0  0  0  0  0
    9.7934   15.2967   -8.5954 N   0  0  0  0  0  0  0  0  0  0  0  0
    9.0436   15.6018   -9.7195 N   0  0  0  0  0  0  0  0  0  0  0  0
    8.5051   16.4665  -12.2116 H   0  0  0  0  0  0  0  0  0  0  0  0
    9.7300   17.6735  -12.2069 H   0  0  0  0  0  0  0  0  0  0  0  0
   11.4037   17.7393  -10.0423 H   0  0  0  0  0  0  0  0  0  0  0  0
   11.3442   15.3926   -7.1533 H   0  0  0  0  0  0  0  0  0  0  0  0
    8.1597   15.1273   -9.9699 H   0  0  0  0  0  0  0  0  0  0  0  0
  1  2  1  0
  1  8  1  0
  1  9  1  0
  2  3  2  0
  2  7  1  0
  3  4  1  0
  3 10  1  0
  4  5  1  0
  4  6  2  0
  5 11  1  0
  6  7  1  0
  7 12  1  0
M  END
> <intraLJ>
-0.707    

> <intraEL>
-16.624   

> <intraDihe>
2.009     

> <interLJ>
0.000     

> <interEJ>
0.000     

> <gridLJ>
-2.796    

> <gridEL>
0.000     

> <totalE>
-18.118   

> <LGFE>
-2.796  

> <LE>
-0.399  

> <SMILES>
Nc1cc(O)n[nH]1

> <atom.dprop.GFE>
-0.68 -0.15 -0.13 -0.13 -0.36 -0.56 -0.78 0 0 0 0 0

> <atom.prop.CLASS>
GEND GEHC GEHC GEHC MEOO GENA GEND NCLA NCLA NCLA NCLA NCLA

$$$$
