52_2
     RDKit          3D

  9  9  0  0  0  0  0  0  0  0999 V2000
    1.6902   14.8990    8.3615 C   0  0  0  0  0  0  0  0  0  0  0  0
    0.6003   13.9179    8.6779 C   0  0  0  0  0  0  0  0  0  0  0  0
   -0.6515   14.1301    8.4015 N   0  0  0  0  0  0  0  0  0  0  0  0
   -1.2679   13.0438    8.8364 N   0  0  0  0  0  0  0  0  0  0  0  0
   -0.3673   12.2205    9.3554 N   0  0  0  0  0  0  0  0  0  0  0  0
    0.8282   12.7779    9.2560 N   0  0  0  0  0  0  0  0  0  0  0  0
    1.2358   15.7510    7.8604 H   0  0  0  0  0  0  0  0  0  0  0  0
    2.4008   14.3879    7.7160 H   0  0  0  0  0  0  0  0  0  0  0  0
    2.1443   15.1852    9.3068 H   0  0  0  0  0  0  0  0  0  0  0  0
  1  2  1  0
  1  7  1  0
  1  8  1  0
  1  9  1  0
  2  3  1  0
  2  6  2  0
  3  4  1  0
  4  5  2  0
  5  6  1  0
M  CHG  1   3  -1
M  END
> <intraLJ>
0.213     

> <intraEL>
-1.734    

> <intraDihe>
1.640     

> <interLJ>
0.000     

> <interEJ>
0.000     

> <gridLJ>
-2.224    

> <gridEL>
0.000     

> <totalE>
-2.105    

> <LGFE>
-2.224  

> <LE>
-0.371  

> <SMILES>
Cc1nnn[n-]1

> <atom.dprop.GFE>
-0.19 -0.19 -0.25 -0.44 -0.56 -0.59 0 0 0

> <atom.prop.CLASS>
PRPC GEHC ACEC GENA GENA GENA NCLA NCLA NCLA

$$$$
