14_1
     RDKit          3D

 18 18  0  0  1  0  0  0  0  0999 V2000
    3.8977    3.5759  -39.6881 C   0  0  0  0  0  0  0  0  0  0  0  0
    3.8294    2.4138  -38.7900 N   0  0  0  0  0  0  0  0  0  0  0  0
    2.6615    2.4844  -37.8957 C   0  0  0  0  0  0  0  0  0  0  0  0
    2.2790    1.0108  -37.6453 C   0  0  0  0  0  0  0  0  0  0  0  0
    3.3063    0.1993  -38.4296 C   0  0  0  0  0  0  0  0  0  0  0  0
    4.4372    0.0006  -37.6122 O   0  0  0  0  0  0  0  0  0  0  0  0
    3.7233    1.1578  -39.5451 C   0  0  0  0  0  0  0  0  0  0  0  0
    3.9765    4.4626  -39.0714 H   0  0  0  0  0  0  0  0  0  0  0  0
    3.0028    3.6024  -40.2963 H   0  0  0  0  0  0  0  0  0  0  0  0
    4.7817    3.4660  -40.3014 H   0  0  0  0  0  0  0  0  0  0  0  0
    2.9500    2.9538  -36.9629 H   0  0  0  0  0  0  0  0  0  0  0  0
    1.8307    2.9796  -38.3830 H   0  0  0  0  0  0  0  0  0  0  0  0
    1.2817    0.8198  -38.0404 H   0  0  0  0  0  0  0  0  0  0  0  0
    2.3154    0.7656  -36.5838 H   0  0  0  0  0  0  0  0  0  0  0  0
    2.9015   -0.7546  -38.7727 H   0  0  0  0  0  0  0  0  0  0  0  0
    4.8136    0.8885  -37.5441 H   0  0  0  0  0  0  0  0  0  0  0  0
    2.9270    1.2155  -40.2754 H   0  0  0  0  0  0  0  0  0  0  0  0
    4.6805    0.8644  -39.9574 H   0  0  0  0  0  0  0  0  0  0  0  0
  1  2  1  0
  1  8  1  0
  1  9  1  0
  1 10  1  0
  2  3  1  0
  2  7  1  0
  3  4  1  0
  3 11  1  0
  3 12  1  0
  4  5  1  0
  4 13  1  0
  4 14  1  0
  5  6  1  0
  5  7  1  0
  5 15  1  0
  6 16  1  0
  7 17  1  0
  7 18  1  0
M  END
> <intraLJ>
3.504     

> <intraEL>
0.090     

> <intraDihe>
11.625    

> <interLJ>
0.000     

> <interEJ>
0.000     

> <gridLJ>
-3.460    

> <gridEL>
0.000     

> <totalE>
11.759    

> <LGFE>
-3.460  

> <LE>
-0.494  

> <SMILES>
CN1CCC(O)C1

> <atom.dprop.GFE>
-0.43 -0.73 -0.44 -0.43 -0.4 -0.64 -0.39 0 0 0 0 0 0 0 0 0 0 0

> <atom.prop.CLASS>
PRPC GEND PRPC PRPC PRPC MEOO PRPC NCLA NCLA NCLA NCLA NCLA NCLA NCLA NCLA NCLA NCLA NCLA

$$$$
