65
     RDKit          3D

 12 12  0  0  0  0  0  0  0  0999 V2000
   10.2946   -5.7847  -10.6960 N   0  0  0  0  0  0  0  0  0  0  0  0
    9.8677   -5.8275  -11.9581 C   0  0  0  0  0  0  0  0  0  0  0  0
   10.3767   -6.7789  -12.7286 N   0  0  0  0  0  0  0  0  0  0  0  0
    9.9566   -6.8288  -13.9812 C   0  0  0  0  0  0  0  0  0  0  0  0
    9.0175   -5.9171  -14.4403 C   0  0  0  0  0  0  0  0  0  0  0  0
    8.5329   -4.9595  -13.5599 C   0  0  0  0  0  0  0  0  0  0  0  0
    8.9638   -4.9237  -12.3113 N   0  0  0  0  0  0  0  0  0  0  0  0
    9.6475   -5.2931  -10.0747 H   0  0  0  0  0  0  0  0  0  0  0  0
   10.6933   -6.6737  -10.3819 H   0  0  0  0  0  0  0  0  0  0  0  0
   10.3501   -7.5770  -14.6225 H   0  0  0  0  0  0  0  0  0  0  0  0
    8.6767   -5.9501  -15.4412 H   0  0  0  0  0  0  0  0  0  0  0  0
    7.8131   -4.2455  -13.8725 H   0  0  0  0  0  0  0  0  0  0  0  0
  1  2  1  0
  1  8  1  0
  1  9  1  0
  2  3  2  0
  2  7  1  0
  3  4  1  0
  4  5  2  0
  4 10  1  0
  5  6  1  0
  5 11  1  0
  6  7  2  0
  6 12  1  0
M  END
> <intraLJ>
20.123    

> <intraEL>
-18.333   

> <intraDihe>
1.049     

> <interLJ>
0.000     

> <interEJ>
0.000     

> <gridLJ>
-2.318    

> <gridEL>
0.000     

> <totalE>
0.520     

> <LGFE>
-2.318  

> <LE>
-0.331  

> <SMILES>
Nc1ncccn1

> <atom.dprop.GFE>
-0.68 -0.22 -0.56 -0.11 -0.099 -0.12 -0.54 0 0 0 0 0

> <atom.prop.CLASS>
GEND GEHC GENA BENC BENC BENC GENA NCLA NCLA NCLA NCLA NCLA

$$$$
