40_3
     RDKit          3D

 11 11  0  0  0  0  0  0  0  0999 V2000
  -16.0322   11.0524   -7.5798 O   0  0  0  0  0  0  0  0  0  0  0  0
  -15.7109   11.3904   -8.7374 C   0  0  0  0  0  0  0  0  0  0  0  0
  -14.4220   11.9341   -9.0044 C   0  0  0  0  0  0  0  0  0  0  0  0
  -14.0965   12.2944  -10.2758 C   0  0  0  0  0  0  0  0  0  0  0  0
  -15.0306   12.1228  -11.2825 N   0  0  0  0  0  0  0  0  0  0  0  0
  -16.2704   11.6057  -11.0602 N   0  0  0  0  0  0  0  0  0  0  0  0
  -16.6043   11.2538   -9.8496 C   0  0  0  0  0  0  0  0  0  0  0  0
  -13.7419   12.0470   -8.2018 H   0  0  0  0  0  0  0  0  0  0  0  0
  -13.1649   12.7071  -10.5764 H   0  0  0  0  0  0  0  0  0  0  0  0
  -14.7935   12.3947  -12.2622 H   0  0  0  0  0  0  0  0  0  0  0  0
  -17.5700   10.8532   -9.6813 H   0  0  0  0  0  0  0  0  0  0  0  0
  1  2  2  0
  2  3  1  0
  2  7  1  0
  3  4  2  0
  3  8  1  0
  4  5  1  0
  4  9  1  0
  5  6  1  0
  5 10  1  0
  6  7  2  0
  7 11  1  0
M  END
> <intraLJ>
10.148    

> <intraEL>
-0.725    

> <intraDihe>
0.000     

> <interLJ>
0.000     

> <interEJ>
0.000     

> <gridLJ>
-2.490    

> <gridEL>
0.000     

> <totalE>
6.933     

> <LGFE>
-2.490  

> <LE>
-0.356  

> <SMILES>
O=c1cc[nH]nc1

> <atom.dprop.GFE>
-1.3 -0.13 0.093 -0.032 -0.58 -0.43 -0.066 0 0 0 0

> <atom.prop.CLASS>
GENA GEHC BENC BENC GEND GENA BENC NCLA NCLA NCLA NCLA

$$$$
