46_1
     RDKit          3D

 14 14  0  0  0  0  0  0  0  0999 V2000
   24.8552    7.5425   -9.0964 C   0  0  0  0  0  0  0  0  0  0  0  0
   23.9379    6.3973   -9.5585 C   0  0  0  0  0  0  0  0  0  0  0  0
   22.9287    6.2341   -8.4238 C   0  0  0  0  0  0  0  0  0  0  0  0
   22.9087    7.5304   -7.7336 N   0  0  0  0  0  0  0  0  0  0  0  0
   24.3253    7.9176   -7.7153 C   0  0  0  0  0  0  0  0  0  0  0  0
   24.7444    8.3930   -9.7697 H   0  0  0  0  0  0  0  0  0  0  0  0
   25.8985    7.2301   -9.0418 H   0  0  0  0  0  0  0  0  0  0  0  0
   24.4951    5.4726   -9.7150 H   0  0  0  0  0  0  0  0  0  0  0  0
   23.4174    6.6902  -10.4708 H   0  0  0  0  0  0  0  0  0  0  0  0
   23.2893    5.4597   -7.7421 H   0  0  0  0  0  0  0  0  0  0  0  0
   21.9405    5.9598   -8.7999 H   0  0  0  0  0  0  0  0  0  0  0  0
   22.4905    7.4886   -6.8123 H   0  0  0  0  0  0  0  0  0  0  0  0
   24.4513    8.9831   -7.5112 H   0  0  0  0  0  0  0  0  0  0  0  0
   24.8579    7.3328   -6.9614 H   0  0  0  0  0  0  0  0  0  0  0  0
  1  2  1  0
  1  5  1  0
  1  6  1  0
  1  7  1  0
  2  3  1  0
  2  8  1  0
  2  9  1  0
  3  4  1  0
  3 10  1  0
  3 11  1  0
  4  5  1  0
  4 12  1  0
  5 13  1  0
  5 14  1  0
M  END
> <intraLJ>
-0.383    

> <intraEL>
0.415     

> <intraDihe>
8.071     

> <interLJ>
0.000     

> <interEJ>
0.000     

> <gridLJ>
-2.784    

> <gridEL>
0.000     

> <totalE>
5.318     

> <LGFE>
-2.784  

> <LE>
-0.557  

> <SMILES>
C1CCNC1

> <atom.dprop.GFE>
-0.41 -0.34 -0.38 -1.3 -0.38 0 0 0 0 0 0 0 0 0

> <atom.prop.CLASS>
PRPC PRPC PRPC GEND PRPC NCLA NCLA NCLA NCLA NCLA NCLA NCLA NCLA NCLA

$$$$
