19_1
     RDKit          3D

 11 11  0  0  0  0  0  0  0  0999 V2000
  -21.0710    6.7974  -11.5540 N   0  0  0  0  0  0  0  0  0  0  0  0
  -21.2086    6.2236  -10.3115 C   0  0  0  0  0  0  0  0  0  0  0  0
  -20.5639    6.5696   -9.1316 C   0  0  0  0  0  0  0  0  0  0  0  0
  -21.0479    5.7318   -8.1892 C   0  0  0  0  0  0  0  0  0  0  0  0
  -21.9405    4.9411   -8.8345 N   0  0  0  0  0  0  0  0  0  0  0  0
  -22.0484    5.2528  -10.1676 N   0  0  0  0  0  0  0  0  0  0  0  0
  -21.8786    6.4870  -12.1090 H   0  0  0  0  0  0  0  0  0  0  0  0
  -21.0340    7.8185  -11.4680 H   0  0  0  0  0  0  0  0  0  0  0  0
  -19.8387    7.3300   -9.0056 H   0  0  0  0  0  0  0  0  0  0  0  0
  -20.8373    5.6347   -7.1562 H   0  0  0  0  0  0  0  0  0  0  0  0
  -22.4878    4.1826   -8.3864 H   0  0  0  0  0  0  0  0  0  0  0  0
  1  2  1  0
  1  7  1  0
  1  8  1  0
  2  3  1  0
  2  6  2  0
  3  4  2  0
  3  9  1  0
  4  5  1  0
  4 10  1  0
  5  6  1  0
  5 11  1  0
M  END
> <intraLJ>
-0.199    

> <intraEL>
-8.716    

> <intraDihe>
2.079     

> <interLJ>
0.000     

> <interEJ>
0.000     

> <gridLJ>
-2.672    

> <gridEL>
0.000     

> <totalE>
-9.507    

> <LGFE>
-2.672  

> <LE>
-0.445  

> <SMILES>
Nc1cc[nH]n1

> <atom.dprop.GFE>
-0.29 -0.23 -0.22 -0.16 -0.72 -1.1 0 0 0 0 0

> <atom.prop.CLASS>
GEND GEHC GEHC GEHC GEND GENA NCLA NCLA NCLA NCLA NCLA

$$$$
