6
     RDKit          3D

 10 10  0  0  0  0  0  0  0  0999 V2000
  -15.5117    8.6099  -15.6317 N   0  0  0  0  0  0  0  0  0  0  0  0
  -15.5158    7.6706  -16.6456 C   0  0  0  0  0  0  0  0  0  0  0  0
  -16.5206    7.4679  -17.5798 C   0  0  0  0  0  0  0  0  0  0  0  0
  -16.0749    6.4682  -18.3516 C   0  0  0  0  0  0  0  0  0  0  0  0
  -14.8660    6.1024  -17.8957 O   0  0  0  0  0  0  0  0  0  0  0  0
  -14.5298    6.8673  -16.8240 N   0  0  0  0  0  0  0  0  0  0  0  0
  -14.5484    8.7642  -15.3064 H   0  0  0  0  0  0  0  0  0  0  0  0
  -16.0009    9.4729  -15.8948 H   0  0  0  0  0  0  0  0  0  0  0  0
  -17.4399    7.9834  -17.6603 H   0  0  0  0  0  0  0  0  0  0  0  0
  -16.5121    5.9833  -19.1867 H   0  0  0  0  0  0  0  0  0  0  0  0
  1  2  1  0
  1  7  1  0
  1  8  1  0
  2  3  1  0
  2  6  2  0
  3  4  2  0
  3  9  1  0
  4  5  1  0
  4 10  1  0
  5  6  1  0
M  END
> <intraLJ>
-0.275    

> <intraEL>
-7.962    

> <intraDihe>
1.578     

> <interLJ>
0.000     

> <interEJ>
0.000     

> <gridLJ>
-3.239    

> <gridEL>
0.000     

> <totalE>
-9.899    

> <LGFE>
-3.239  

> <LE>
-0.540  

> <SMILES>
Nc1ccon1

> <atom.dprop.GFE>
-0.77 -0.17 -0.066 -0.18 -1 -1.1 0 0 0 0

> <atom.prop.CLASS>
GEND GEHC GEHC GEHC GENA GENA NCLA NCLA NCLA NCLA

$$$$
