81_2
     RDKit          3D

 19 19  0  0  1  0  0  0  0  0999 V2000
    3.2156   16.8266  -18.0845 N   0  0  0  0  0  0  0  0  0  0  0  0
    3.6395   18.1104  -17.4716 C   0  0  0  0  0  0  0  0  0  0  0  0
    4.4062   17.8348  -16.1683 C   0  0  0  0  0  0  0  0  0  0  0  0
    3.5773   17.1769  -15.0698 C   0  0  0  0  0  0  0  0  0  0  0  0
    4.2849   17.6492  -13.7987 C   0  0  0  0  0  0  0  0  0  0  0  0
    5.1507   18.8277  -14.2509 C   0  0  0  0  0  0  0  0  0  0  0  0
    4.7825   19.0761  -15.5997 O   0  0  0  0  0  0  0  0  0  0  0  0
    2.8276   16.9503  -19.0070 H   0  0  0  0  0  0  0  0  0  0  0  0
    2.5702   16.3409  -17.4790 H   0  0  0  0  0  0  0  0  0  0  0  0
    4.0588   16.2554  -18.1162 H   0  0  0  0  0  0  0  0  0  0  0  0
    4.3239   18.6235  -18.1517 H   0  0  0  0  0  0  0  0  0  0  0  0
    2.7885   18.7663  -17.2719 H   0  0  0  0  0  0  0  0  0  0  0  0
    5.2992   17.2389  -16.3698 H   0  0  0  0  0  0  0  0  0  0  0  0
    2.5537   17.5581  -15.0811 H   0  0  0  0  0  0  0  0  0  0  0  0
    3.5850   16.0884  -15.1516 H   0  0  0  0  0  0  0  0  0  0  0  0
    4.9202   16.8596  -13.3923 H   0  0  0  0  0  0  0  0  0  0  0  0
    3.5600   17.9676  -13.0468 H   0  0  0  0  0  0  0  0  0  0  0  0
    6.2053   18.5500  -14.1973 H   0  0  0  0  0  0  0  0  0  0  0  0
    4.9724   19.7077  -13.6289 H   0  0  0  0  0  0  0  0  0  0  0  0
  1  2  1  0
  1  8  1  0
  1  9  1  0
  1 10  1  0
  2  3  1  0
  2 11  1  0
  2 12  1  0
  3  4  1  0
  3  7  1  0
  3 13  1  0
  4  5  1  0
  4 14  1  0
  4 15  1  0
  5  6  1  0
  5 16  1  0
  5 17  1  0
  6  7  1  0
  6 18  1  0
  6 19  1  0
M  CHG  1   1   1
M  END
> <intraLJ>
-0.745    

> <intraEL>
2.669     

> <intraDihe>
7.604     

> <interLJ>
0.000     

> <interEJ>
0.000     

> <gridLJ>
-2.545    

> <gridEL>
0.000     

> <totalE>
6.983     

> <LGFE>
-2.545  

> <LE>
-0.364  

> <SMILES>
[NH3+]CC1CCCO1

> <atom.dprop.GFE>
-1.5 -0.13 -0.11 -0.17 -0.2 -0.24 -0.24 0 0 0 0 0 0 0 0 0 0 0 0

> <atom.prop.CLASS>
MAMN PRPC PRPC PRPC PRPC PRPC GENA NCLA NCLA NCLA NCLA NCLA NCLA NCLA NCLA NCLA NCLA NCLA NCLA

$$$$
