36_1
     RDKit          3D

 13 13  0  0  0  0  0  0  0  0999 V2000
  -15.0789    9.9084  -13.9661 N   0  0  0  0  0  0  0  0  0  0  0  0
  -15.4515    8.5112  -13.7762 C   0  0  0  0  0  0  0  0  0  0  0  0
  -15.4246    7.9116  -15.1693 C   0  0  0  0  0  0  0  0  0  0  0  0
  -16.4882    7.5169  -15.8893 C   0  0  0  0  0  0  0  0  0  0  0  0
  -16.0525    7.0474  -17.0459 O   0  0  0  0  0  0  0  0  0  0  0  0
  -14.7161    7.1729  -16.9940 C   0  0  0  0  0  0  0  0  0  0  0  0
  -14.2905    7.6830  -15.8924 N   0  0  0  0  0  0  0  0  0  0  0  0
  -15.7382   10.2767  -14.6427 H   0  0  0  0  0  0  0  0  0  0  0  0
  -14.1740    9.9307  -14.4138 H   0  0  0  0  0  0  0  0  0  0  0  0
  -16.4598    8.4488  -13.3879 H   0  0  0  0  0  0  0  0  0  0  0  0
  -14.7226    8.0137  -13.1482 H   0  0  0  0  0  0  0  0  0  0  0  0
  -17.5222    7.5355  -15.6593 H   0  0  0  0  0  0  0  0  0  0  0  0
  -14.1352    6.8557  -17.8243 H   0  0  0  0  0  0  0  0  0  0  0  0
  1  2  1  0
  1  8  1  0
  1  9  1  0
  2  3  1  0
  2 10  1  0
  2 11  1  0
  3  4  2  0
  3  7  1  0
  4  5  1  0
  4 12  1  0
  5  6  1  0
  6  7  2  0
  6 13  1  0
M  END
> <intraLJ>
1.030     

> <intraEL>
3.210     

> <intraDihe>
2.633     

> <interLJ>
0.000     

> <interEJ>
0.000     

> <gridLJ>
-3.544    

> <gridEL>
0.000     

> <totalE>
3.329     

> <LGFE>
-3.544  

> <LE>
-0.506  

> <SMILES>
NCc1cocn1

> <atom.dprop.GFE>
-0.83 -0.54 -0.22 -0.15 -1 -0.16 -0.62 0 0 0 0 0 0

> <atom.prop.CLASS>
GEND PRPC GEHC GEHC GENA GEHC GENA NCLA NCLA NCLA NCLA NCLA NCLA

$$$$
