11_1
     RDKit          3D

 11 11  0  0  0  0  0  0  0  0999 V2000
   21.6140   -3.2516  -26.6880 O   0  0  0  0  0  0  0  0  0  0  0  0
   22.0075   -3.4818  -27.8137 C   0  0  0  0  0  0  0  0  0  0  0  0
   21.3877   -4.3719  -28.8417 C   0  0  0  0  0  0  0  0  0  0  0  0
   22.0798   -3.8425  -30.1153 C   0  0  0  0  0  0  0  0  0  0  0  0
   23.3410   -3.2605  -29.6451 O   0  0  0  0  0  0  0  0  0  0  0  0
   23.1101   -2.9214  -28.3096 N   0  0  0  0  0  0  0  0  0  0  0  0
   20.3173   -4.2315  -28.8815 H   0  0  0  0  0  0  0  0  0  0  0  0
   21.7096   -5.3842  -28.6493 H   0  0  0  0  0  0  0  0  0  0  0  0
   21.4730   -3.0588  -30.5728 H   0  0  0  0  0  0  0  0  0  0  0  0
   22.2633   -4.6440  -30.8329 H   0  0  0  0  0  0  0  0  0  0  0  0
   23.7121   -2.2812  -27.7701 H   0  0  0  0  0  0  0  0  0  0  0  0
  1  2  2  0
  2  3  1  0
  2  6  1  0
  3  4  1  0
  3  7  1  0
  3  8  1  0
  4  5  1  0
  4  9  1  0
  4 10  1  0
  5  6  1  0
  6 11  1  0
M  END
> <intraLJ>
-0.418    

> <intraEL>
-2.154    

> <intraDihe>
5.561     

> <interLJ>
0.000     

> <interEJ>
0.000     

> <gridLJ>
-2.651    

> <gridEL>
0.000     

> <totalE>
0.339     

> <LGFE>
-2.651  

> <LE>
-0.442  

> <SMILES>
O=C1CCON1

> <atom.dprop.GFE>
-1.5 -0.22 -0.16 -0.076 -0.17 -0.56 0 0 0 0 0

> <atom.prop.CLASS>
GENA GEHC PRPC PRPC GENA GEND NCLA NCLA NCLA NCLA NCLA

$$$$
