28_2
     RDKit          3D

 10 10  0  0  0  0  0  0  0  0999 V2000
  -29.1576   -2.3328    7.8156 C   0  0  0  0  0  0  0  0  0  0  0  0
  -30.1448   -3.2554    7.8463 C   0  0  0  0  0  0  0  0  0  0  0  0
  -30.7941   -3.0945    9.0426 N   0  0  0  0  0  0  0  0  0  0  0  0
  -30.2334   -2.1083    9.7311 C   0  0  0  0  0  0  0  0  0  0  0  0
  -29.2345   -1.6368    8.9938 N   0  0  0  0  0  0  0  0  0  0  0  0
  -28.4255   -2.1207    7.0706 H   0  0  0  0  0  0  0  0  0  0  0  0
  -30.4311   -3.9951    7.1327 H   0  0  0  0  0  0  0  0  0  0  0  0
  -31.6091   -3.6527    9.3788 H   0  0  0  0  0  0  0  0  0  0  0  0
  -30.5285   -1.7596   10.6968 H   0  0  0  0  0  0  0  0  0  0  0  0
  -28.6124   -0.8521    9.2853 H   0  0  0  0  0  0  0  0  0  0  0  0
  1  2  2  0
  1  5  1  0
  1  6  1  0
  2  3  1  0
  2  7  1  0
  3  4  2  0
  3  8  1  0
  4  5  1  0
  4  9  1  0
  5 10  1  0
M  CHG  1   3   1
M  END
> <intraLJ>
-0.306    

> <intraEL>
3.276     

> <intraDihe>
0.000     

> <interLJ>
0.000     

> <interEJ>
0.000     

> <gridLJ>
-2.089    

> <gridEL>
0.000     

> <totalE>
0.882     

> <LGFE>
-2.089  

> <LE>
-0.418  

> <SMILES>
c1c[nH+]c[nH]1

> <atom.dprop.GFE>
0.11 -0.012 0 -2.2 0 0 0 0 0 0

> <atom.prop.CLASS>
GEHC GEHC NCLA MAMC NCLA NCLA NCLA NCLA NCLA NCLA

$$$$
