41
     RDKit          3D

  8  8  0  0  0  0  0  0  0  0999 V2000
  -24.4309   -1.8786  -13.0033 C   0  0  0  0  0  0  0  0  0  0  0  0
  -24.5250   -2.1145  -11.6824 C   0  0  0  0  0  0  0  0  0  0  0  0
  -23.9981   -3.3269  -11.5171 N   0  0  0  0  0  0  0  0  0  0  0  0
  -23.5911   -3.8251  -12.6921 N   0  0  0  0  0  0  0  0  0  0  0  0
  -23.8571   -2.9316  -13.6174 N   0  0  0  0  0  0  0  0  0  0  0  0
  -24.7523   -1.0033  -13.5084 H   0  0  0  0  0  0  0  0  0  0  0  0
  -24.9107   -1.5340  -10.8861 H   0  0  0  0  0  0  0  0  0  0  0  0
  -23.9009   -3.8413  -10.6224 H   0  0  0  0  0  0  0  0  0  0  0  0
  1  2  2  0
  1  5  1  0
  1  6  1  0
  2  3  1  0
  2  7  1  0
  3  4  1  0
  3  8  1  0
  4  5  2  0
M  END
> <intraLJ>
-0.290    

> <intraEL>
-0.628    

> <intraDihe>
0.000     

> <interLJ>
0.000     

> <interEJ>
0.000     

> <gridLJ>
-2.653    

> <gridEL>
0.000     

> <totalE>
-3.571    

> <LGFE>
-2.653  

> <LE>
-0.531  

> <SMILES>
c1c[nH]nn1

> <atom.dprop.GFE>
-0.13 -0.1 -0.56 -0.93 -0.93 0 0 0

> <atom.prop.CLASS>
GEHC GEHC GEND GENA GENA NCLA NCLA NCLA

$$$$
