79
     RDKit          3D

 13 12  0  0  0  0  0  0  0  0999 V2000
   17.8861   13.1141  -46.2980 C   0  0  0  0  0  0  0  0  0  0  0  0
   16.8922   12.7096  -47.3839 C   0  0  0  0  0  0  0  0  0  0  0  0
   16.2949   11.4906  -46.8938 O   0  0  0  0  0  0  0  0  0  0  0  0
   16.7247   10.2426  -47.1463 C   0  0  0  0  0  0  0  0  0  0  0  0
   17.6877   10.0238  -47.8485 O   0  0  0  0  0  0  0  0  0  0  0  0
   16.0492    9.2266  -46.5910 N   0  0  0  0  0  0  0  0  0  0  0  0
   18.3918   14.0359  -46.5851 H   0  0  0  0  0  0  0  0  0  0  0  0
   18.6250   12.3223  -46.1647 H   0  0  0  0  0  0  0  0  0  0  0  0
   17.3576   13.2694  -45.3569 H   0  0  0  0  0  0  0  0  0  0  0  0
   17.4175   12.5288  -48.3231 H   0  0  0  0  0  0  0  0  0  0  0  0
   16.1341   13.4860  -47.5041 H   0  0  0  0  0  0  0  0  0  0  0  0
   16.3851    8.2772  -46.7820 H   0  0  0  0  0  0  0  0  0  0  0  0
   15.2396    9.4000  -45.9927 H   0  0  0  0  0  0  0  0  0  0  0  0
  1  2  1  0
  1  7  1  0
  1  8  1  0
  1  9  1  0
  2  3  1  0
  2 10  1  0
  2 11  1  0
  3  4  1  0
  4  5  2  0
  4  6  1  0
  6 12  1  0
  6 13  1  0
M  END
> <intraLJ>
-0.001    

> <intraEL>
-7.833    

> <intraDihe>
1.199     

> <interLJ>
0.000     

> <interEJ>
0.000     

> <gridLJ>
-2.246    

> <gridEL>
0.000     

> <totalE>
-8.881    

> <LGFE>
-2.246  

> <LE>
-0.374  

> <SMILES>
CCOC(N)=O

> <atom.dprop.GFE>
-0.35 -0.27 -0.49 0 -0.47 -0.66 0 0 0 0 0 0 0

> <atom.prop.CLASS>
PRPC PRPC GENA NCLA GENA GEND NCLA NCLA NCLA NCLA NCLA NCLA NCLA

$$$$
