25
     RDKit          3D

 12 12  0  0  0  0  0  0  0  0999 V2000
  -28.0641    3.1696    6.5693 O   0  0  0  0  0  0  0  0  0  0  0  0
  -28.2341    2.2719    5.7851 C   0  0  0  0  0  0  0  0  0  0  0  0
  -27.6616    2.1286    4.3973 C   0  0  0  0  0  0  0  0  0  0  0  0
  -28.2459    0.7665    3.9252 C   0  0  0  0  0  0  0  0  0  0  0  0
  -29.0765    0.3329    5.1063 C   0  0  0  0  0  0  0  0  0  0  0  0
  -29.7372   -0.6674    5.2240 O   0  0  0  0  0  0  0  0  0  0  0  0
  -29.0128    1.2289    6.1008 N   0  0  0  0  0  0  0  0  0  0  0  0
  -26.5844    2.0808    4.4663 H   0  0  0  0  0  0  0  0  0  0  0  0
  -28.0327    2.9374    3.7832 H   0  0  0  0  0  0  0  0  0  0  0  0
  -27.4570    0.0441    3.7700 H   0  0  0  0  0  0  0  0  0  0  0  0
  -28.8968    0.9031    3.0721 H   0  0  0  0  0  0  0  0  0  0  0  0
  -29.5007    1.1270    6.9959 H   0  0  0  0  0  0  0  0  0  0  0  0
  1  2  2  0
  2  3  1  0
  2  7  1  0
  3  4  1  0
  3  8  1  0
  3  9  1  0
  4  5  1  0
  4 10  1  0
  4 11  1  0
  5  6  2  0
  5  7  1  0
  7 12  1  0
M  END
> <intraLJ>
-0.774    

> <intraEL>
-6.724    

> <intraDihe>
1.508     

> <interLJ>
0.000     

> <interEJ>
0.000     

> <gridLJ>
-2.206    

> <gridEL>
0.000     

> <totalE>
-8.196    

> <LGFE>
-2.206  

> <LE>
-0.315  

> <SMILES>
O=C1CCC(=O)N1

> <atom.dprop.GFE>
-0.75 -0.025 -0.42 -0.36 -0.23 -0.19 -0.24 0 0 0 0 0

> <atom.prop.CLASS>
GENA GEHC PRPC PRPC GEHC GENA GEND NCLA NCLA NCLA NCLA NCLA

$$$$
