78_1
     RDKit          3D

 13 12  0  0  0  0  0  0  0  0999 V2000
   17.0616    5.3230   -6.5981 C   0  0  0  0  0  0  0  0  0  0  0  0
   17.8732    6.5454   -6.1205 C   0  0  0  0  0  0  0  0  0  0  0  0
   17.4040    6.8900   -4.7249 C   0  0  0  0  0  0  0  0  0  0  0  0
   18.1665    7.1095   -3.7639 N   0  0  0  0  0  0  0  0  0  0  0  0
   16.0768    6.9805   -4.4891 N   0  0  0  0  0  0  0  0  0  0  0  0
   17.3676    5.0871   -7.6171 H   0  0  0  0  0  0  0  0  0  0  0  0
   16.0007    5.5835   -6.5763 H   0  0  0  0  0  0  0  0  0  0  0  0
   17.2588    4.4763   -5.9400 H   0  0  0  0  0  0  0  0  0  0  0  0
   17.6597    7.3843   -6.7687 H   0  0  0  0  0  0  0  0  0  0  0  0
   18.9239    6.2981   -6.0906 H   0  0  0  0  0  0  0  0  0  0  0  0
   17.6634    7.3062   -2.9274 H   0  0  0  0  0  0  0  0  0  0  0  0
   15.7863    7.4982   -3.6535 H   0  0  0  0  0  0  0  0  0  0  0  0
   15.4658    7.0152   -5.3119 H   0  0  0  0  0  0  0  0  0  0  0  0
  1  2  1  0
  1  6  1  0
  1  7  1  0
  1  8  1  0
  2  3  1  0
  2  9  1  0
  2 10  1  0
  3  4  2  0
  3  5  1  0
  4 11  1  0
  5 12  1  0
  5 13  1  0
M  END
> <intraLJ>
1.987     

> <intraEL>
-9.532    

> <intraDihe>
7.088     

> <interLJ>
0.000     

> <interEJ>
0.000     

> <gridLJ>
-2.936    

> <gridEL>
0.000     

> <totalE>
-3.393    

> <LGFE>
-2.936  

> <LE>
-0.587  

> <SMILES>
CCC(=N)N

> <atom.dprop.GFE>
-0.45 -0.56 0 -0.94 -0.98 0 0 0 0 0 0 0 0

> <atom.prop.CLASS>
PRPC PRPC NCLA GENA GEND NCLA NCLA NCLA NCLA NCLA NCLA NCLA NCLA

$$$$
