20_1
     RDKit          3D

 17 17  0  0  0  0  0  0  0  0999 V2000
  -34.6452   15.0613   25.3015 N   0  0  0  0  0  0  0  0  0  0  0  0
  -34.0971   15.8029   26.4425 C   0  0  0  0  0  0  0  0  0  0  0  0
  -32.5779   15.7651   26.4592 C   0  0  0  0  0  0  0  0  0  0  0  0
  -32.2146   16.1291   27.9021 C   0  0  0  0  0  0  0  0  0  0  0  0
  -33.4095   15.6777   28.7536 C   0  0  0  0  0  0  0  0  0  0  0  0
  -34.4485   15.1389   27.7651 C   0  0  0  0  0  0  0  0  0  0  0  0
  -34.3495   15.4935   24.4382 H   0  0  0  0  0  0  0  0  0  0  0  0
  -35.6545   15.0546   25.3502 H   0  0  0  0  0  0  0  0  0  0  0  0
  -34.4414   16.8404   26.4468 H   0  0  0  0  0  0  0  0  0  0  0  0
  -32.1524   16.4698   25.7445 H   0  0  0  0  0  0  0  0  0  0  0  0
  -32.2370   14.7517   26.2387 H   0  0  0  0  0  0  0  0  0  0  0  0
  -32.0919   17.2102   27.9898 H   0  0  0  0  0  0  0  0  0  0  0  0
  -31.2964   15.6258   28.2085 H   0  0  0  0  0  0  0  0  0  0  0  0
  -33.8165   16.5326   29.2969 H   0  0  0  0  0  0  0  0  0  0  0  0
  -33.1161   14.8985   29.4592 H   0  0  0  0  0  0  0  0  0  0  0  0
  -34.3344   14.0578   27.6679 H   0  0  0  0  0  0  0  0  0  0  0  0
  -35.4657   15.3812   28.0741 H   0  0  0  0  0  0  0  0  0  0  0  0
  1  2  1  0
  1  7  1  0
  1  8  1  0
  2  3  1  0
  2  6  1  0
  2  9  1  0
  3  4  1  0
  3 10  1  0
  3 11  1  0
  4  5  1  0
  4 12  1  0
  4 13  1  0
  5  6  1  0
  5 14  1  0
  5 15  1  0
  6 16  1  0
  6 17  1  0
M  END
> <intraLJ>
0.465     

> <intraEL>
-1.894    

> <intraDihe>
13.208    

> <interLJ>
0.000     

> <interEJ>
0.000     

> <gridLJ>
-2.239    

> <gridEL>
0.000     

> <totalE>
9.540     

> <LGFE>
-2.239  

> <LE>
-0.373  

> <SMILES>
NC1CCCC1

> <atom.dprop.GFE>
-0.69 -0.37 -0.24 -0.31 -0.27 -0.35 0 0 0 0 0 0 0 0 0 0 0

> <atom.prop.CLASS>
GEND PRPC PRPC PRPC PRPC PRPC NCLA NCLA NCLA NCLA NCLA NCLA NCLA NCLA NCLA NCLA NCLA

$$$$
