17_2
     RDKit          3D

 16 16  0  0  0  0  0  0  0  0999 V2000
   -7.9382   16.3804   -0.6730 N   0  0  0  0  0  0  0  0  0  0  0  0
   -7.0084   16.2799    0.2949 C   0  0  0  0  0  0  0  0  0  0  0  0
   -7.3814   15.8692    1.3713 O   0  0  0  0  0  0  0  0  0  0  0  0
   -5.5174   16.6516    0.1144 C   0  0  0  0  0  0  0  0  0  0  0  0
   -5.1947   18.0103    0.5229 N   0  0  0  0  0  0  0  0  0  0  0  0
   -4.7572   16.1079   -1.0528 C   0  0  0  0  0  0  0  0  0  0  0  0
   -4.4658   15.6158    0.3544 C   0  0  0  0  0  0  0  0  0  0  0  0
   -8.8831   16.1098   -0.4423 H   0  0  0  0  0  0  0  0  0  0  0  0
   -7.7223   16.7110   -1.5991 H   0  0  0  0  0  0  0  0  0  0  0  0
   -6.1434   18.4013    0.8540 H   0  0  0  0  0  0  0  0  0  0  0  0
   -4.8362   18.5362   -0.3279 H   0  0  0  0  0  0  0  0  0  0  0  0
   -4.4960   17.9609    1.3210 H   0  0  0  0  0  0  0  0  0  0  0  0
   -3.9999   16.7361   -1.5053 H   0  0  0  0  0  0  0  0  0  0  0  0
   -5.2799   15.4192   -1.7058 H   0  0  0  0  0  0  0  0  0  0  0  0
   -4.8022   14.6137    0.5936 H   0  0  0  0  0  0  0  0  0  0  0  0
   -3.5252   15.9342    0.7859 H   0  0  0  0  0  0  0  0  0  0  0  0
  1  2  1  0
  1  8  1  0
  1  9  1  0
  2  3  2  0
  2  4  1  0
  4  5  1  0
  4  6  1  0
  4  7  1  0
  5 10  1  0
  5 11  1  0
  5 12  1  0
  6  7  1  0
  6 13  1  0
  6 14  1  0
  7 15  1  0
  7 16  1  0
M  CHG  1   5   1
M  END
> <intraLJ>
-0.440    

> <intraEL>
0.101     

> <intraDihe>
6.325     

> <interLJ>
0.000     

> <interEJ>
0.000     

> <gridLJ>
-2.027    

> <gridEL>
0.000     

> <totalE>
3.959     

> <LGFE>
-2.027  

> <LE>
-0.290  

> <SMILES>
NC(=O)C1([NH3+])CC1

> <atom.dprop.GFE>
-0.25 0 -0.44 -0.12 -0.14 -0.55 -0.53 0 0 0 0 0 0 0 0 0

> <atom.prop.CLASS>
GEND NCLA GENA PRPC MAMN PRPC PRPC NCLA NCLA NCLA NCLA NCLA NCLA NCLA NCLA NCLA

$$$$
