56
     RDKit          3D

 13 12  0  0  0  0  0  0  0  0999 V2000
   -0.2042    2.8842   11.2238 C   0  0  0  0  0  0  0  0  0  0  0  0
   -0.8421    2.9439    9.8609 C   0  0  0  0  0  0  0  0  0  0  0  0
   -1.0920    3.9994    9.3226 O   0  0  0  0  0  0  0  0  0  0  0  0
   -1.1250    1.7466    9.2587 N   0  0  0  0  0  0  0  0  0  0  0  0
   -1.6931    1.5135    8.0416 C   0  0  0  0  0  0  0  0  0  0  0  0
   -2.0279    2.4581    7.3578 O   0  0  0  0  0  0  0  0  0  0  0  0
   -1.8743    0.2595    7.6220 N   0  0  0  0  0  0  0  0  0  0  0  0
   -0.0790    1.8521   11.5151 H   0  0  0  0  0  0  0  0  0  0  0  0
   -0.8681    3.4110   11.8936 H   0  0  0  0  0  0  0  0  0  0  0  0
    0.7451    3.3948   11.1380 H   0  0  0  0  0  0  0  0  0  0  0  0
   -0.8930    0.8882    9.7620 H   0  0  0  0  0  0  0  0  0  0  0  0
   -2.3075    0.0930    6.7092 H   0  0  0  0  0  0  0  0  0  0  0  0
   -1.5754   -0.5119    8.2430 H   0  0  0  0  0  0  0  0  0  0  0  0
  1  2  1  0
  1  8  1  0
  1  9  1  0
  1 10  1  0
  2  3  2  0
  2  4  1  0
  4  5  1  0
  4 11  1  0
  5  6  2  0
  5  7  1  0
  7 12  1  0
  7 13  1  0
M  END
> <intraLJ>
1.000     

> <intraEL>
-10.160   

> <intraDihe>
0.003     

> <interLJ>
0.000     

> <interEJ>
0.000     

> <gridLJ>
-4.231    

> <gridEL>
0.000     

> <totalE>
-13.389   

> <LGFE>
-4.231  

> <LE>
-0.604  

> <SMILES>
CC(=O)NC(N)=O

> <atom.dprop.GFE>
-0.22 0 -1.1 -1 0 -0.92 -0.98 0 0 0 0 0 0

> <atom.prop.CLASS>
PRPC NCLA GENA GEND NCLA GENA GEND NCLA NCLA NCLA NCLA NCLA NCLA

$$$$
