43
     RDKit          3D

 16 16  0  0  0  0  0  0  0  0999 V2000
   -0.0815    2.2628    8.4972 O   0  0  0  0  0  0  0  0  0  0  0  0
   -1.3372    2.3880    8.8106 B   0  0  0  0  0  0  0  0  0  0  0  0
   -1.9325    1.2850    9.1562 O   0  0  0  0  0  0  0  0  0  0  0  0
   -2.0928    3.8147    8.8052 C   0  0  0  0  0  0  0  0  0  0  0  0
   -1.2358    4.9687    9.3945 C   0  0  0  0  0  0  0  0  0  0  0  0
   -2.5437    5.4677   10.0759 C   0  0  0  0  0  0  0  0  0  0  0  0
   -3.0606    4.0010   10.0069 C   0  0  0  0  0  0  0  0  0  0  0  0
    0.3794    3.0825    8.2470 H   0  0  0  0  0  0  0  0  0  0  0  0
   -2.8705    1.3648    9.4030 H   0  0  0  0  0  0  0  0  0  0  0  0
   -2.5307    4.0273    7.8374 H   0  0  0  0  0  0  0  0  0  0  0  0
   -0.8353    5.6456    8.6532 H   0  0  0  0  0  0  0  0  0  0  0  0
   -0.5010    4.6269   10.1120 H   0  0  0  0  0  0  0  0  0  0  0  0
   -3.1117    6.1395    9.4446 H   0  0  0  0  0  0  0  0  0  0  0  0
   -2.4023    5.8392   11.0824 H   0  0  0  0  0  0  0  0  0  0  0  0
   -2.7744    3.4208   10.8753 H   0  0  0  0  0  0  0  0  0  0  0  0
   -4.1065    3.9109    9.7503 H   0  0  0  0  0  0  0  0  0  0  0  0
  1  2  1  0
  1  8  1  0
  2  3  1  0
  2  4  1  0
  3  9  1  0
  4  5  1  0
  4  7  1  0
  4 10  1  0
  5  6  1  0
  5 11  1  0
  5 12  1  0
  6  7  1  0
  6 13  1  0
  6 14  1  0
  7 15  1  0
  7 16  1  0
M  END
> <intraLJ>
3.517     

> <intraEL>
0.178     

> <intraDihe>
30.178    

> <interLJ>
0.000     

> <interEJ>
0.000     

> <gridLJ>
-3.227    

> <gridEL>
0.000     

> <totalE>
30.647    

> <LGFE>
-3.227  

> <LE>
-0.461  

> <SMILES>
OB(O)C1CCC1

> <atom.dprop.GFE>
-0.63 0 -0.95 -0.51 -0.3 -0.37 -0.46 0 0 0 0 0 0 0 0 0

> <atom.prop.CLASS>
MEOO NCLA MEOO PRPC PRPC PRPC PRPC NCLA NCLA NCLA NCLA NCLA NCLA NCLA NCLA NCLA

$$$$
