69_1
     RDKit          3D

 14 14  0  0  0  0  0  0  0  0999 V2000
   16.6941    7.8790    5.7951 C   0  0  0  0  0  0  0  0  0  0  0  0
   15.5951    7.5939    4.8887 N   0  0  0  0  0  0  0  0  0  0  0  0
   14.3630    7.1358    5.2357 C   0  0  0  0  0  0  0  0  0  0  0  0
   13.5953    6.9814    4.1933 N   0  0  0  0  0  0  0  0  0  0  0  0
   14.3697    7.3609    3.1595 C   0  0  0  0  0  0  0  0  0  0  0  0
   13.8796    7.3164    1.8684 N   0  0  0  0  0  0  0  0  0  0  0  0
   15.6043    7.7357    3.5470 C   0  0  0  0  0  0  0  0  0  0  0  0
   16.3519    7.6827    6.8010 H   0  0  0  0  0  0  0  0  0  0  0  0
   16.9527    8.9205    5.6586 H   0  0  0  0  0  0  0  0  0  0  0  0
   17.5098    7.2266    5.5171 H   0  0  0  0  0  0  0  0  0  0  0  0
   14.1192    6.9450    6.2499 H   0  0  0  0  0  0  0  0  0  0  0  0
   14.6067    6.9665    1.2367 H   0  0  0  0  0  0  0  0  0  0  0  0
   13.0566    6.7011    1.8860 H   0  0  0  0  0  0  0  0  0  0  0  0
   16.4341    8.0799    2.9892 H   0  0  0  0  0  0  0  0  0  0  0  0
  1  2  1  0
  1  8  1  0
  1  9  1  0
  1 10  1  0
  2  3  1  0
  2  7  1  0
  3  4  2  0
  3 11  1  0
  4  5  1  0
  5  6  1  0
  5  7  2  0
  6 12  1  0
  6 13  1  0
  7 14  1  0
M  END
> <intraLJ>
0.484     

> <intraEL>
-6.835    

> <intraDihe>
2.003     

> <interLJ>
0.000     

> <interEJ>
0.000     

> <gridLJ>
-2.538    

> <gridEL>
0.000     

> <totalE>
-6.886    

> <LGFE>
-2.538  

> <LE>
-0.363  

> <SMILES>
Cn1cnc(N)c1

> <atom.dprop.GFE>
-0.15 -0.12 -0.1 -0.9 -0.16 -1.1 -0.022 0 0 0 0 0 0 0

> <atom.prop.CLASS>
PRPC GEHC GEHC GENA GEHC GEND GEHC NCLA NCLA NCLA NCLA NCLA NCLA NCLA

$$$$
