9_2
     RDKit          3D

 13 13  0  0  0  0  0  0  0  0999 V2000
   -2.6429   16.0937   -0.7481 O   0  0  0  0  0  0  0  0  0  0  0  0
   -2.6385   14.7322   -1.3184 C   0  0  0  0  0  0  0  0  0  0  0  0
   -1.6171   14.6020   -2.4853 C   0  0  0  0  0  0  0  0  0  0  0  0
   -2.6646   15.2216   -3.3405 N   0  0  0  0  0  0  0  0  0  0  0  0
   -3.6808   14.5817   -2.4625 C   0  0  0  0  0  0  0  0  0  0  0  0
   -2.7224   16.0703    0.2256 H   0  0  0  0  0  0  0  0  0  0  0  0
   -2.6199   13.9571   -0.5647 H   0  0  0  0  0  0  0  0  0  0  0  0
   -1.4169   13.5728   -2.7542 H   0  0  0  0  0  0  0  0  0  0  0  0
   -0.7304   15.2091   -2.3640 H   0  0  0  0  0  0  0  0  0  0  0  0
   -2.6724   14.8906   -4.3515 H   0  0  0  0  0  0  0  0  0  0  0  0
   -2.6728   16.2823   -3.2145 H   0  0  0  0  0  0  0  0  0  0  0  0
   -4.5775   15.1711   -2.3215 H   0  0  0  0  0  0  0  0  0  0  0  0
   -3.8672   13.5497   -2.7274 H   0  0  0  0  0  0  0  0  0  0  0  0
  1  2  1  0
  1  6  1  0
  2  3  1  0
  2  5  1  0
  2  7  1  0
  3  4  1  0
  3  8  1  0
  3  9  1  0
  4  5  1  0
  4 10  1  0
  4 11  1  0
  5 12  1  0
  5 13  1  0
M  CHG  1   4   1
M  END
> <intraLJ>
3.656     

> <intraEL>
5.220     

> <intraDihe>
6.360     

> <interLJ>
0.000     

> <interEJ>
0.000     

> <gridLJ>
-3.511    

> <gridEL>
0.000     

> <totalE>
11.725    

> <LGFE>
-3.511  

> <LE>
-0.702  

> <SMILES>
OC1C[NH2+]C1

> <atom.dprop.GFE>
-0.85 -0.74 -0.67 -0.61 -0.64 0 0 0 0 0 0 0 0

> <atom.prop.CLASS>
MEOO PRPC PRPC MAMN PRPC NCLA NCLA NCLA NCLA NCLA NCLA NCLA NCLA

$$$$
