32
     RDKit          3D

 17 16  0  0  0  0  0  0  0  0999 V2000
  -29.3833   -5.7539    5.0953 C   0  0  0  0  0  0  0  0  0  0  0  0
  -28.7177   -5.0290    3.9280 C   0  0  0  0  0  0  0  0  0  0  0  0
  -29.6561   -4.9599    2.7246 C   0  0  0  0  0  0  0  0  0  0  0  0
  -27.5871   -5.8472    3.5355 N   0  0  0  0  0  0  0  0  0  0  0  0
  -26.2934   -5.5458    3.7537 C   0  0  0  0  0  0  0  0  0  0  0  0
  -25.9713   -4.6822    4.5432 O   0  0  0  0  0  0  0  0  0  0  0  0
  -25.3741   -6.2189    3.0600 N   0  0  0  0  0  0  0  0  0  0  0  0
  -30.2595   -5.1949    5.4223 H   0  0  0  0  0  0  0  0  0  0  0  0
  -28.6806   -5.8276    5.9263 H   0  0  0  0  0  0  0  0  0  0  0  0
  -29.6903   -6.7563    4.7964 H   0  0  0  0  0  0  0  0  0  0  0  0
  -28.4439   -4.0204    4.2413 H   0  0  0  0  0  0  0  0  0  0  0  0
  -29.9491   -5.9624    2.4124 H   0  0  0  0  0  0  0  0  0  0  0  0
  -29.1507   -4.4633    1.8960 H   0  0  0  0  0  0  0  0  0  0  0  0
  -30.5473   -4.3906    2.9857 H   0  0  0  0  0  0  0  0  0  0  0  0
  -27.7175   -6.4337    2.7039 H   0  0  0  0  0  0  0  0  0  0  0  0
  -24.4280   -5.8245    3.1014 H   0  0  0  0  0  0  0  0  0  0  0  0
  -25.6850   -6.6903    2.2096 H   0  0  0  0  0  0  0  0  0  0  0  0
  1  2  1  0
  1  8  1  0
  1  9  1  0
  1 10  1  0
  2  3  1  0
  2  4  1  0
  2 11  1  0
  3 12  1  0
  3 13  1  0
  3 14  1  0
  4  5  1  0
  4 15  1  0
  5  6  2  0
  5  7  1  0
  7 16  1  0
  7 17  1  0
M  END
> <intraLJ>
-0.732    

> <intraEL>
-9.446    

> <intraDihe>
5.514     

> <interLJ>
0.000     

> <interEJ>
0.000     

> <gridLJ>
-3.942    

> <gridEL>
0.000     

> <totalE>
-8.606    

> <LGFE>
-3.942  

> <LE>
-0.563  

> <SMILES>
CC(C)NC(N)=O

> <atom.dprop.GFE>
-0.27 -0.35 -0.2 -0.82 0 -1.4 -0.92 0 0 0 0 0 0 0 0 0 0

> <atom.prop.CLASS>
PRPC PRPC PRPC GEND NCLA GENA GEND NCLA NCLA NCLA NCLA NCLA NCLA NCLA NCLA NCLA NCLA

$$$$
