31_1
     RDKit          3D

 15 15  0  0  0  0  0  0  0  0999 V2000
  -39.7015   -1.4990   26.8078 O   0  0  0  0  0  0  0  0  0  0  0  0
  -39.6351   -2.3647   25.9463 C   0  0  0  0  0  0  0  0  0  0  0  0
  -38.3002   -3.0948   25.6391 C   0  0  0  0  0  0  0  0  0  0  0  0
  -38.4140   -4.3461   24.8140 N   0  0  0  0  0  0  0  0  0  0  0  0
  -39.4354   -4.1571   23.7498 C   0  0  0  0  0  0  0  0  0  0  0  0
  -40.8071   -3.8281   24.3655 C   0  0  0  0  0  0  0  0  0  0  0  0
  -40.7107   -2.6353   25.2061 N   0  0  0  0  0  0  0  0  0  0  0  0
  -37.8116   -3.3245   26.5868 H   0  0  0  0  0  0  0  0  0  0  0  0
  -37.6701   -2.3858   25.1029 H   0  0  0  0  0  0  0  0  0  0  0  0
  -38.6906   -5.1126   25.4160 H   0  0  0  0  0  0  0  0  0  0  0  0
  -39.5186   -5.0677   23.1533 H   0  0  0  0  0  0  0  0  0  0  0  0
  -39.1349   -3.3406   23.0893 H   0  0  0  0  0  0  0  0  0  0  0  0
  -41.1419   -4.6752   24.9663 H   0  0  0  0  0  0  0  0  0  0  0  0
  -41.5268   -3.6578   23.5629 H   0  0  0  0  0  0  0  0  0  0  0  0
  -41.5344   -2.0964   25.4162 H   0  0  0  0  0  0  0  0  0  0  0  0
  1  2  2  0
  2  3  1  0
  2  7  1  0
  3  4  1  0
  3  8  1  0
  3  9  1  0
  4  5  1  0
  4 10  1  0
  5  6  1  0
  5 11  1  0
  5 12  1  0
  6  7  1  0
  6 13  1  0
  6 14  1  0
  7 15  1  0
M  END
> <intraLJ>
0.615     

> <intraEL>
3.232     

> <intraDihe>
15.833    

> <interLJ>
0.000     

> <interEJ>
0.000     

> <gridLJ>
-2.632    

> <gridEL>
0.000     

> <totalE>
17.048    

> <LGFE>
-2.632  

> <LE>
-0.376  

> <SMILES>
O=C1CNCCN1

> <atom.dprop.GFE>
-0.71 0 -0.41 -0.64 -0.19 -0.29 -0.4 0 0 0 0 0 0 0 0

> <atom.prop.CLASS>
GENA NCLA PRPC GEND PRPC PRPC GEND NCLA NCLA NCLA NCLA NCLA NCLA NCLA NCLA

$$$$
