47_1
     RDKit          3D

 10  9  0  0  0  0  0  0  0  0999 V2000
   18.9063   -3.8518  -34.2353 N   0  0  0  0  0  0  0  0  0  0  0  0
   19.5254   -3.4213  -35.5285 C   0  0  0  0  0  0  0  0  0  0  0  0
   19.1003   -2.0218  -36.0271 C   0  0  0  0  0  0  0  0  0  0  0  0
   18.0441   -1.8119  -36.6060 O   0  0  0  0  0  0  0  0  0  0  0  0
   19.8735   -0.9396  -35.8120 O   0  0  0  0  0  0  0  0  0  0  0  0
   19.1220   -4.8187  -34.0352 H   0  0  0  0  0  0  0  0  0  0  0  0
   17.9015   -3.7243  -34.2776 H   0  0  0  0  0  0  0  0  0  0  0  0
   19.2552   -4.1339  -36.3072 H   0  0  0  0  0  0  0  0  0  0  0  0
   20.6121   -3.4226  -35.4266 H   0  0  0  0  0  0  0  0  0  0  0  0
   19.3908   -0.2318  -36.2394 H   0  0  0  0  0  0  0  0  0  0  0  0
  1  2  1  0
  1  6  1  0
  1  7  1  0
  2  3  1  0
  2  8  1  0
  2  9  1  0
  3  4  2  0
  3  5  1  0
  5 10  1  0
M  END
> <intraLJ>
-0.299    

> <intraEL>
3.170     

> <intraDihe>
0.054     

> <interLJ>
0.000     

> <interEJ>
0.000     

> <gridLJ>
-3.053    

> <gridEL>
0.000     

> <totalE>
-0.128    

> <LGFE>
-3.053  

> <LE>
-0.611  

> <SMILES>
NCC(=O)O

> <atom.dprop.GFE>
-0.47 -0.3 0 -1.4 -0.91 0 0 0 0 0

> <atom.prop.CLASS>
GEND PRPC NCLA GENA MEOO NCLA NCLA NCLA NCLA NCLA

$$$$
