2_1
     RDKit          3D

 15 15  0  0  0  0  0  0  0  0999 V2000
   11.2743   10.0469  -42.1639 C   0  0  0  0  0  0  0  0  0  0  0  0
   11.6822    8.7267  -41.4842 C   0  0  0  0  0  0  0  0  0  0  0  0
   10.6210    8.2151  -40.6762 O   0  0  0  0  0  0  0  0  0  0  0  0
   10.2280    9.1498  -39.6698 C   0  0  0  0  0  0  0  0  0  0  0  0
    9.7776   10.4828  -40.2967 C   0  0  0  0  0  0  0  0  0  0  0  0
   10.8346   11.0600  -41.1684 N   0  0  0  0  0  0  0  0  0  0  0  0
   10.4575    9.8316  -42.8560 H   0  0  0  0  0  0  0  0  0  0  0  0
   12.1206   10.4317  -42.7344 H   0  0  0  0  0  0  0  0  0  0  0  0
   12.5618    8.9054  -40.8645 H   0  0  0  0  0  0  0  0  0  0  0  0
   11.9373    7.9925  -42.2488 H   0  0  0  0  0  0  0  0  0  0  0  0
   11.0657    9.3412  -38.9981 H   0  0  0  0  0  0  0  0  0  0  0  0
    9.4051    8.7304  -39.0905 H   0  0  0  0  0  0  0  0  0  0  0  0
    9.5294   11.1861  -39.5009 H   0  0  0  0  0  0  0  0  0  0  0  0
    8.8777   10.2929  -40.8855 H   0  0  0  0  0  0  0  0  0  0  0  0
   10.5059   11.9014  -41.6278 H   0  0  0  0  0  0  0  0  0  0  0  0
  1  2  1  0
  1  6  1  0
  1  7  1  0
  1  8  1  0
  2  3  1  0
  2  9  1  0
  2 10  1  0
  3  4  1  0
  4  5  1  0
  4 11  1  0
  4 12  1  0
  5  6  1  0
  5 13  1  0
  5 14  1  0
  6 15  1  0
M  END
> <intraLJ>
0.516     

> <intraEL>
2.915     

> <intraDihe>
4.772     

> <interLJ>
0.000     

> <interEJ>
0.000     

> <gridLJ>
-2.445    

> <gridEL>
0.000     

> <totalE>
5.758     

> <LGFE>
-2.445  

> <LE>
-0.408  

> <SMILES>
C1COCCN1

> <atom.dprop.GFE>
-0.2 -0.35 -1.2 -0.22 -0.12 -0.39 0 0 0 0 0 0 0 0 0

> <atom.prop.CLASS>
PRPC PRPC GENA PRPC PRPC GEND NCLA NCLA NCLA NCLA NCLA NCLA NCLA NCLA NCLA

$$$$
