6
     RDKit          3D

 10 10  0  0  0  0  0  0  0  0999 V2000
  -20.7053    0.1468   25.0750 N   0  0  0  0  0  0  0  0  0  0  0  0
  -20.3017    0.7378   26.2574 C   0  0  0  0  0  0  0  0  0  0  0  0
  -19.4461    1.8213   26.3894 C   0  0  0  0  0  0  0  0  0  0  0  0
  -19.3624    2.0335   27.7091 C   0  0  0  0  0  0  0  0  0  0  0  0
  -20.1330    1.1215   28.3235 O   0  0  0  0  0  0  0  0  0  0  0  0
  -20.7156    0.3154   27.3974 N   0  0  0  0  0  0  0  0  0  0  0  0
  -21.5622   -0.3988   25.2353 H   0  0  0  0  0  0  0  0  0  0  0  0
  -20.7847    0.8222   24.3063 H   0  0  0  0  0  0  0  0  0  0  0  0
  -18.9601    2.3569   25.6185 H   0  0  0  0  0  0  0  0  0  0  0  0
  -18.8211    2.7544   28.2669 H   0  0  0  0  0  0  0  0  0  0  0  0
  1  2  1  0
  1  7  1  0
  1  8  1  0
  2  3  1  0
  2  6  2  0
  3  4  2  0
  3  9  1  0
  4  5  1  0
  4 10  1  0
  5  6  1  0
M  END
> <intraLJ>
-0.275    

> <intraEL>
-7.962    

> <intraDihe>
1.578     

> <interLJ>
0.000     

> <interEJ>
0.000     

> <gridLJ>
-2.779    

> <gridEL>
0.000     

> <totalE>
-9.439    

> <LGFE>
-2.779  

> <LE>
-0.463  

> <SMILES>
Nc1ccon1

> <atom.dprop.GFE>
-0.69 -0.16 -0.15 -0.17 -0.8 -0.8 0 0 0 0

> <atom.prop.CLASS>
GEND GEHC GEHC GEHC GENA GENA NCLA NCLA NCLA NCLA

$$$$
