31_2
     RDKit          3D

 16 16  0  0  0  0  0  0  0  0999 V2000
   -1.1257   11.3185   10.2256 O   0  0  0  0  0  0  0  0  0  0  0  0
   -0.6173   12.0787    9.4242 C   0  0  0  0  0  0  0  0  0  0  0  0
   -1.4910   12.8661    8.4106 C   0  0  0  0  0  0  0  0  0  0  0  0
   -0.8035   14.0268    7.7351 N   0  0  0  0  0  0  0  0  0  0  0  0
    0.5962   13.6516    7.3625 C   0  0  0  0  0  0  0  0  0  0  0  0
    1.4062   13.2386    8.6119 C   0  0  0  0  0  0  0  0  0  0  0  0
    0.7117   12.1814    9.3509 N   0  0  0  0  0  0  0  0  0  0  0  0
   -2.3854   13.2052    8.9371 H   0  0  0  0  0  0  0  0  0  0  0  0
   -1.8114   12.1417    7.6591 H   0  0  0  0  0  0  0  0  0  0  0  0
   -0.7754   14.8026    8.3867 H   0  0  0  0  0  0  0  0  0  0  0  0
   -1.3310   14.3109    6.9177 H   0  0  0  0  0  0  0  0  0  0  0  0
    1.1024   14.4897    6.8772 H   0  0  0  0  0  0  0  0  0  0  0  0
    0.5866   12.8081    6.6652 H   0  0  0  0  0  0  0  0  0  0  0  0
    1.5488   14.1072    9.2594 H   0  0  0  0  0  0  0  0  0  0  0  0
    2.3900   12.8823    8.2968 H   0  0  0  0  0  0  0  0  0  0  0  0
    1.2292   11.5987   10.0007 H   0  0  0  0  0  0  0  0  0  0  0  0
  1  2  2  0
  2  3  1  0
  2  7  1  0
  3  4  1  0
  3  8  1  0
  3  9  1  0
  4  5  1  0
  4 10  1  0
  4 11  1  0
  5  6  1  0
  5 12  1  0
  5 13  1  0
  6  7  1  0
  6 14  1  0
  6 15  1  0
  7 16  1  0
M  CHG  1   4   1
M  END
> <intraLJ>
0.159     

> <intraEL>
4.369     

> <intraDihe>
10.053    

> <interLJ>
0.000     

> <interEJ>
0.000     

> <gridLJ>
-3.010    

> <gridEL>
0.000     

> <totalE>
11.572    

> <LGFE>
-3.010  

> <LE>
-0.430  

> <SMILES>
O=C1C[NH2+]CCN1

> <atom.dprop.GFE>
-0.38 0 -0.27 -1.3 -0.32 -0.26 -0.52 0 0 0 0 0 0 0 0 0

> <atom.prop.CLASS>
GENA NCLA PRPC MAMN PRPC PRPC GEND NCLA NCLA NCLA NCLA NCLA NCLA NCLA NCLA NCLA

$$$$
