24_1
     RDKit          3D

 16 16  0  0  0  0  0  0  0  0999 V2000
    9.8958   12.2023  -37.9335 N   0  0  0  0  0  0  0  0  0  0  0  0
   10.4789   13.3860  -37.7543 C   0  0  0  0  0  0  0  0  0  0  0  0
   10.6930   13.8489  -36.6018 N   0  0  0  0  0  0  0  0  0  0  0  0
   11.3693   15.1382  -36.4292 C   0  0  0  0  0  0  0  0  0  0  0  0
   12.3275   15.3048  -37.6173 C   0  0  0  0  0  0  0  0  0  0  0  0
   11.5381   15.2389  -38.9300 C   0  0  0  0  0  0  0  0  0  0  0  0
   10.7890   13.9784  -38.9311 N   0  0  0  0  0  0  0  0  0  0  0  0
    9.4652   11.9019  -37.0535 H   0  0  0  0  0  0  0  0  0  0  0  0
    9.2746   12.2059  -38.7454 H   0  0  0  0  0  0  0  0  0  0  0  0
   11.9340   15.1349  -35.4968 H   0  0  0  0  0  0  0  0  0  0  0  0
   10.6342   15.9445  -36.4117 H   0  0  0  0  0  0  0  0  0  0  0  0
   13.0734   14.5077  -37.5959 H   0  0  0  0  0  0  0  0  0  0  0  0
   12.8333   16.2664  -37.5440 H   0  0  0  0  0  0  0  0  0  0  0  0
   12.2211   15.2813  -39.7803 H   0  0  0  0  0  0  0  0  0  0  0  0
   10.8412   16.0783  -38.9789 H   0  0  0  0  0  0  0  0  0  0  0  0
   11.0319   13.2903  -39.6516 H   0  0  0  0  0  0  0  0  0  0  0  0
  1  2  1  0
  1  8  1  0
  1  9  1  0
  2  3  2  0
  2  7  1  0
  3  4  1  0
  4  5  1  0
  4 10  1  0
  4 11  1  0
  5  6  1  0
  5 12  1  0
  5 13  1  0
  6  7  1  0
  6 14  1  0
  6 15  1  0
  7 16  1  0
M  END
> <intraLJ>
3.879     

> <intraEL>
-12.614   

> <intraDihe>
8.194     

> <interLJ>
0.000     

> <interEJ>
0.000     

> <gridLJ>
-2.191    

> <gridEL>
0.000     

> <totalE>
-2.731    

> <LGFE>
-2.191  

> <LE>
-0.313  

> <SMILES>
NC1=NCCCN1

> <atom.dprop.GFE>
-0.56 0 -1.3 0.1 -0.1 0.019 -0.38 0 0 0 0 0 0 0 0 0

> <atom.prop.CLASS>
GEND NCLA GENA PRPC PRPC PRPC GEND NCLA NCLA NCLA NCLA NCLA NCLA NCLA NCLA NCLA

$$$$
