26_1
     RDKit          3D

 13 13  0  0  0  0  0  0  0  0999 V2000
   17.7687    7.4199   -4.4742 O   0  0  0  0  0  0  0  0  0  0  0  0
   18.5894    6.2452   -4.5592 C   0  0  0  0  0  0  0  0  0  0  0  0
   19.4035    6.4406   -5.8325 C   0  0  0  0  0  0  0  0  0  0  0  0
   20.7686    6.7034   -5.8829 C   0  0  0  0  0  0  0  0  0  0  0  0
   21.1019    6.8093   -7.1881 C   0  0  0  0  0  0  0  0  0  0  0  0
   19.9574    6.6117   -7.8734 N   0  0  0  0  0  0  0  0  0  0  0  0
   18.9025    6.3839   -7.0469 N   0  0  0  0  0  0  0  0  0  0  0  0
   18.0135    7.9514   -5.2652 H   0  0  0  0  0  0  0  0  0  0  0  0
   17.9627    5.3708   -4.6667 H   0  0  0  0  0  0  0  0  0  0  0  0
   19.2584    6.2064   -3.7101 H   0  0  0  0  0  0  0  0  0  0  0  0
   21.4265    6.8034   -5.0580 H   0  0  0  0  0  0  0  0  0  0  0  0
   22.0273    7.0015   -7.6666 H   0  0  0  0  0  0  0  0  0  0  0  0
   19.8691    6.6278   -8.9076 H   0  0  0  0  0  0  0  0  0  0  0  0
  1  2  1  0
  1  8  1  0
  2  3  1  0
  2  9  1  0
  2 10  1  0
  3  4  1  0
  3  7  2  0
  4  5  2  0
  4 11  1  0
  5  6  1  0
  5 12  1  0
  6  7  1  0
  6 13  1  0
M  END
> <intraLJ>
0.254     

> <intraEL>
0.196     

> <intraDihe>
6.143     

> <interLJ>
0.000     

> <interEJ>
0.000     

> <gridLJ>
-3.706    

> <gridEL>
0.000     

> <totalE>
2.888     

> <LGFE>
-3.706  

> <LE>
-0.529  

> <SMILES>
OCc1cc[nH]n1

> <atom.dprop.GFE>
-0.65 -0.51 -0.19 -0.18 -0.34 -0.99 -0.84 0 0 0 0 0 0

> <atom.prop.CLASS>
MEOO PRPC GEHC GEHC GEHC GEND GENA NCLA NCLA NCLA NCLA NCLA NCLA

$$$$
