21_2
     RDKit          3D

 17 16  0  0  0  0  0  0  0  0999 V2000
  -20.7504   -8.3612   -3.7650 C   0  0  0  0  0  0  0  0  0  0  0  0
  -20.2060   -8.2501   -5.2067 C   0  0  0  0  0  0  0  0  0  0  0  0
  -21.3250   -8.7104   -6.1639 C   0  0  0  0  0  0  0  0  0  0  0  0
  -19.0211   -9.1890   -5.3615 C   0  0  0  0  0  0  0  0  0  0  0  0
  -17.8895   -8.7216   -5.7832 N   0  0  0  0  0  0  0  0  0  0  0  0
  -16.7776   -9.3964   -5.9645 O   0  0  0  0  0  0  0  0  0  0  0  0
  -19.0536  -10.4947   -5.0793 N   0  0  0  0  0  0  0  0  0  0  0  0
  -21.5643   -7.6428   -3.6532 H   0  0  0  0  0  0  0  0  0  0  0  0
  -19.9444   -8.1114   -3.0742 H   0  0  0  0  0  0  0  0  0  0  0  0
  -21.1199   -9.3686   -3.5704 H   0  0  0  0  0  0  0  0  0  0  0  0
  -19.9165   -7.2303   -5.4237 H   0  0  0  0  0  0  0  0  0  0  0  0
  -21.6458   -9.7226   -5.9123 H   0  0  0  0  0  0  0  0  0  0  0  0
  -20.9379   -8.6790   -7.1832 H   0  0  0  0  0  0  0  0  0  0  0  0
  -22.1638   -8.0199   -6.0694 H   0  0  0  0  0  0  0  0  0  0  0  0
  -17.9585   -7.7065   -5.9757 H   0  0  0  0  0  0  0  0  0  0  0  0
  -18.1839  -11.0312   -5.2146 H   0  0  0  0  0  0  0  0  0  0  0  0
  -19.9097  -10.9370   -4.7251 H   0  0  0  0  0  0  0  0  0  0  0  0
  1  2  1  0
  1  8  1  0
  1  9  1  0
  1 10  1  0
  2  3  1  0
  2  4  1  0
  2 11  1  0
  3 12  1  0
  3 13  1  0
  3 14  1  0
  4  5  2  0
  4  7  1  0
  5  6  1  0
  5 15  1  0
  7 16  1  0
  7 17  1  0
M  CHG  2   5   1   6  -1
M  END
> <intraLJ>
4.543     

> <intraEL>
-0.794    

> <intraDihe>
0.561     

> <interLJ>
0.000     

> <interEJ>
0.000     

> <gridLJ>
-2.151    

> <gridEL>
0.000     

> <totalE>
2.159     

> <LGFE>
-2.151  

> <LE>
-0.307  

> <SMILES>
CC(C)C(N)=[NH+][O-]

> <atom.dprop.GFE>
-0.16 -0.16 -0.16 -1.7 0 0 0 0 0 0 0 0 0 0 0 0 0

> <atom.prop.CLASS>
PRPC PRPC PRPC MAMC NCLA NCLA NCLA NCLA NCLA NCLA NCLA NCLA NCLA NCLA NCLA NCLA NCLA

$$$$
