70_2
     RDKit          3D

 12 12  0  0  0  0  0  0  0  0999 V2000
   17.3217   -1.1926  -14.5292 N   0  0  0  0  0  0  0  0  0  0  0  0
   18.0083   -1.9615  -13.6382 C   0  0  0  0  0  0  0  0  0  0  0  0
   18.1194   -3.3157  -13.5220 C   0  0  0  0  0  0  0  0  0  0  0  0
   18.9508   -3.6108  -12.4355 C   0  0  0  0  0  0  0  0  0  0  0  0
   19.3419   -4.6957  -11.9404 O   0  0  0  0  0  0  0  0  0  0  0  0
   19.3323   -2.4145  -11.9122 N   0  0  0  0  0  0  0  0  0  0  0  0
   18.7237   -1.3479  -12.6914 N   0  0  0  0  0  0  0  0  0  0  0  0
   16.5692   -1.6622  -15.0527 H   0  0  0  0  0  0  0  0  0  0  0  0
   17.1288   -0.2233  -14.2444 H   0  0  0  0  0  0  0  0  0  0  0  0
   17.6614   -4.0324  -14.1443 H   0  0  0  0  0  0  0  0  0  0  0  0
   19.9640   -2.3030  -11.1026 H   0  0  0  0  0  0  0  0  0  0  0  0
   18.8701   -0.3310  -12.5589 H   0  0  0  0  0  0  0  0  0  0  0  0
  1  2  1  0
  1  8  1  0
  1  9  1  0
  2  3  2  0
  2  7  1  0
  3  4  1  0
  3 10  1  0
  4  5  2  0
  4  6  1  0
  6  7  1  0
  6 11  1  0
  7 12  1  0
M  END
> <intraLJ>
-0.628    

> <intraEL>
-11.018   

> <intraDihe>
1.030     

> <interLJ>
0.000     

> <interEJ>
0.000     

> <gridLJ>
-3.857    

> <gridEL>
0.000     

> <totalE>
-14.473   

> <LGFE>
-3.857  

> <LE>
-0.551  

> <SMILES>
Nc1cc(=O)[nH][nH]1

> <atom.dprop.GFE>
-1.1 -0.23 -0.19 -0.25 -0.59 -0.82 -0.7 0 0 0 0 0

> <atom.prop.CLASS>
GEND GEHC GEHC GEHC GENA GEND GEND NCLA NCLA NCLA NCLA NCLA

$$$$
