40_1
     RDKit          3D

 11 11  0  0  0  0  0  0  0  0999 V2000
   -2.0405    0.1459    8.6984 O   0  0  0  0  0  0  0  0  0  0  0  0
   -1.7327    1.4225    8.3227 C   0  0  0  0  0  0  0  0  0  0  0  0
   -0.4879    1.6678    7.7614 C   0  0  0  0  0  0  0  0  0  0  0  0
   -0.2012    2.9675    7.3907 C   0  0  0  0  0  0  0  0  0  0  0  0
   -1.0956    3.9568    7.5669 N   0  0  0  0  0  0  0  0  0  0  0  0
   -2.2896    3.7142    8.1060 N   0  0  0  0  0  0  0  0  0  0  0  0
   -2.6252    2.4737    8.4850 C   0  0  0  0  0  0  0  0  0  0  0  0
   -2.9354    0.0680    9.0824 H   0  0  0  0  0  0  0  0  0  0  0  0
    0.2109    0.8843    7.6260 H   0  0  0  0  0  0  0  0  0  0  0  0
    0.7338    3.2167    6.9571 H   0  0  0  0  0  0  0  0  0  0  0  0
   -3.5828    2.3230    8.9096 H   0  0  0  0  0  0  0  0  0  0  0  0
  1  2  1  0
  1  8  1  0
  2  3  2  0
  2  7  1  0
  3  4  1  0
  3  9  1  0
  4  5  2  0
  4 10  1  0
  5  6  1  0
  6  7  2  0
  7 11  1  0
M  END
> <intraLJ>
16.086    

> <intraEL>
2.571     

> <intraDihe>
0.000     

> <interLJ>
0.000     

> <interEJ>
0.000     

> <gridLJ>
-3.145    

> <gridEL>
0.000     

> <totalE>
15.512    

> <LGFE>
-3.145  

> <LE>
-0.449  

> <SMILES>
Oc1ccnnc1

> <atom.dprop.GFE>
-0.42 -0.28 -0.11 -0.083 -1.1 -0.91 -0.27 0 0 0 0

> <atom.prop.CLASS>
MEOO BENC BENC BENC GENA GENA BENC NCLA NCLA NCLA NCLA

$$$$
