40_3
     RDKit          3D

 11 11  0  0  0  0  0  0  0  0999 V2000
  -20.8612    1.0317   28.0249 O   0  0  0  0  0  0  0  0  0  0  0  0
  -20.4380   -0.0014   28.5828 C   0  0  0  0  0  0  0  0  0  0  0  0
  -19.1594   -0.5342   28.2521 C   0  0  0  0  0  0  0  0  0  0  0  0
  -18.7213   -1.6619   28.8755 C   0  0  0  0  0  0  0  0  0  0  0  0
  -19.5332   -2.2658   29.8197 N   0  0  0  0  0  0  0  0  0  0  0  0
  -20.7597   -1.7814   30.1585 N   0  0  0  0  0  0  0  0  0  0  0  0
  -21.2003   -0.7021   29.5737 C   0  0  0  0  0  0  0  0  0  0  0  0
  -18.5751   -0.0377   27.5231 H   0  0  0  0  0  0  0  0  0  0  0  0
  -17.7868   -2.1357   28.6997 H   0  0  0  0  0  0  0  0  0  0  0  0
  -19.2089   -3.1311   30.3056 H   0  0  0  0  0  0  0  0  0  0  0  0
  -22.1553   -0.3297   29.8395 H   0  0  0  0  0  0  0  0  0  0  0  0
  1  2  2  0
  2  3  1  0
  2  7  1  0
  3  4  2  0
  3  8  1  0
  4  5  1  0
  4  9  1  0
  5  6  1  0
  5 10  1  0
  6  7  2  0
  7 11  1  0
M  END
> <intraLJ>
10.148    

> <intraEL>
-0.725    

> <intraDihe>
0.000     

> <interLJ>
0.000     

> <interEJ>
0.000     

> <gridLJ>
-2.473    

> <gridEL>
0.000     

> <totalE>
6.950     

> <LGFE>
-2.473  

> <LE>
-0.353  

> <SMILES>
O=c1cc[nH]nc1

> <atom.dprop.GFE>
-0.8 -0.26 -0.13 -0.066 -0.38 -0.66 -0.17 0 0 0 0

> <atom.prop.CLASS>
GENA GEHC BENC BENC GEND GENA BENC NCLA NCLA NCLA NCLA

$$$$
