39_1
     RDKit          3D

 11 11  0  0  0  0  0  0  0  0999 V2000
    8.7544   16.3139    1.3467 O   0  0  0  0  0  0  0  0  0  0  0  0
    7.7373   16.6925    0.7609 C   0  0  0  0  0  0  0  0  0  0  0  0
    7.6356   17.0662   -0.6127 C   0  0  0  0  0  0  0  0  0  0  0  0
    6.4290   17.4662   -1.1130 C   0  0  0  0  0  0  0  0  0  0  0  0
    5.2835   17.5090   -0.2635 C   0  0  0  0  0  0  0  0  0  0  0  0
    5.3582   17.1715    0.9886 N   0  0  0  0  0  0  0  0  0  0  0  0
    6.5740   16.7669    1.4962 N   0  0  0  0  0  0  0  0  0  0  0  0
    8.5082   17.0216   -1.2098 H   0  0  0  0  0  0  0  0  0  0  0  0
    6.3273   17.7492   -2.1289 H   0  0  0  0  0  0  0  0  0  0  0  0
    4.3498   17.8206   -0.6561 H   0  0  0  0  0  0  0  0  0  0  0  0
    6.6483   16.4961    2.4921 H   0  0  0  0  0  0  0  0  0  0  0  0
  1  2  2  0
  2  3  1  0
  2  7  1  0
  3  4  2  0
  3  8  1  0
  4  5  1  0
  4  9  1  0
  5  6  2  0
  5 10  1  0
  6  7  1  0
  7 11  1  0
M  END
> <intraLJ>
10.206    

> <intraEL>
-0.642    

> <intraDihe>
0.000     

> <interLJ>
0.000     

> <interEJ>
0.000     

> <gridLJ>
-2.066    

> <gridEL>
0.000     

> <totalE>
7.498     

> <LGFE>
-2.066  

> <LE>
-0.295  

> <SMILES>
O=c1cccn[nH]1

> <atom.dprop.GFE>
-0.6 -0.1 -0.14 -0.1 -0.1 -0.43 -0.6 0 0 0 0

> <atom.prop.CLASS>
GENA GEHC BENC BENC BENC GENA GEND NCLA NCLA NCLA NCLA

$$$$
