23_2
     RDKit          3D

 10 10  0  0  0  0  0  0  0  0999 V2000
    3.0447   -6.1054    0.8839 O   0  0  0  0  0  0  0  0  0  0  0  0
    1.9257   -6.4993    1.2918 C   0  0  0  0  0  0  0  0  0  0  0  0
    0.9415   -6.7671    0.3838 N   0  0  0  0  0  0  0  0  0  0  0  0
   -0.2248   -7.1783    0.8114 C   0  0  0  0  0  0  0  0  0  0  0  0
   -0.4710   -7.3434    2.1656 C   0  0  0  0  0  0  0  0  0  0  0  0
    0.5523   -7.0605    3.0571 C   0  0  0  0  0  0  0  0  0  0  0  0
    1.7205   -6.6496    2.6342 N   0  0  0  0  0  0  0  0  0  0  0  0
   -0.9774   -7.3819    0.0962 H   0  0  0  0  0  0  0  0  0  0  0  0
   -1.4132   -7.6747    2.5095 H   0  0  0  0  0  0  0  0  0  0  0  0
    0.4082   -7.1720    4.0995 H   0  0  0  0  0  0  0  0  0  0  0  0
  1  2  1  0
  2  3  2  0
  2  7  1  0
  3  4  1  0
  4  5  2  0
  4  8  1  0
  5  6  1  0
  5  9  1  0
  6  7  2  0
  6 10  1  0
M  CHG  1   1  -1
M  END
> <intraLJ>
17.983    

> <intraEL>
-7.943    

> <intraDihe>
0.000     

> <interLJ>
0.000     

> <interEJ>
0.000     

> <gridLJ>
-2.007    

> <gridEL>
0.000     

> <totalE>
8.034     

> <LGFE>
-2.007  

> <LE>
-0.287  

> <SMILES>
[O-]c1ncccn1

> <atom.dprop.GFE>
0 -0.15 -1.1 -0.053 -0.059 -0.061 -0.63 0 0 0

> <atom.prop.CLASS>
NCLA GEHC GENA BENC BENC BENC GENA NCLA NCLA NCLA

$$$$
