5
     RDKit          3D

 13 13  0  0  0  0  0  0  0  0999 V2000
  -16.9987    5.7006    7.2879 C   0  0  0  0  0  0  0  0  0  0  0  0
  -17.6106    4.5539    6.4802 C   0  0  0  0  0  0  0  0  0  0  0  0
  -19.0924    4.5789    6.8569 C   0  0  0  0  0  0  0  0  0  0  0  0
  -19.2866    5.8131    7.5164 O   0  0  0  0  0  0  0  0  0  0  0  0
  -18.1145    6.0811    8.2547 C   0  0  0  0  0  0  0  0  0  0  0  0
  -16.7859    6.5469    6.6325 H   0  0  0  0  0  0  0  0  0  0  0  0
  -16.1008    5.3894    7.8205 H   0  0  0  0  0  0  0  0  0  0  0  0
  -17.1696    3.5975    6.7637 H   0  0  0  0  0  0  0  0  0  0  0  0
  -17.4858    4.7307    5.4123 H   0  0  0  0  0  0  0  0  0  0  0  0
  -19.3128    3.7594    7.5441 H   0  0  0  0  0  0  0  0  0  0  0  0
  -19.7279    4.5052    5.9729 H   0  0  0  0  0  0  0  0  0  0  0  0
  -18.0547    7.1321    8.5404 H   0  0  0  0  0  0  0  0  0  0  0  0
  -18.0786    5.4444    9.1407 H   0  0  0  0  0  0  0  0  0  0  0  0
  1  2  1  0
  1  5  1  0
  1  6  1  0
  1  7  1  0
  2  3  1  0
  2  8  1  0
  2  9  1  0
  3  4  1  0
  3 10  1  0
  3 11  1  0
  4  5  1  0
  5 12  1  0
  5 13  1  0
M  END
> <intraLJ>
-0.357    

> <intraEL>
0.089     

> <intraDihe>
7.745     

> <interLJ>
0.000     

> <interEJ>
0.000     

> <gridLJ>
-4.025    

> <gridEL>
0.000     

> <totalE>
3.452     

> <LGFE>
-4.025  

> <LE>
-0.805  

> <SMILES>
C1CCOC1

> <atom.dprop.GFE>
-0.58 -0.49 -0.56 -1.8 -0.59 0 0 0 0 0 0 0 0

> <atom.prop.CLASS>
PRPC PRPC PRPC GENA PRPC NCLA NCLA NCLA NCLA NCLA NCLA NCLA NCLA

$$$$
