11_3
     RDKit          3D

 11 11  0  0  0  0  0  0  0  0999 V2000
   23.7102   11.2771  -42.0956 O   0  0  0  0  0  0  0  0  0  0  0  0
   22.9467   12.3652  -42.0794 C   0  0  0  0  0  0  0  0  0  0  0  0
   22.6661   13.1359  -40.8375 C   0  0  0  0  0  0  0  0  0  0  0  0
   21.7772   14.2232  -41.4568 C   0  0  0  0  0  0  0  0  0  0  0  0
   21.7180   13.8727  -42.8802 O   0  0  0  0  0  0  0  0  0  0  0  0
   22.4459   12.7576  -43.1510 N   0  0  0  0  0  0  0  0  0  0  0  0
   23.6859   11.0293  -43.0400 H   0  0  0  0  0  0  0  0  0  0  0  0
   23.5842   13.5529  -40.4523 H   0  0  0  0  0  0  0  0  0  0  0  0
   22.1095   12.5207  -40.1461 H   0  0  0  0  0  0  0  0  0  0  0  0
   22.2262   15.2092  -41.3353 H   0  0  0  0  0  0  0  0  0  0  0  0
   20.7755   14.1992  -41.0264 H   0  0  0  0  0  0  0  0  0  0  0  0
  1  2  1  0
  1  7  1  0
  2  3  1  0
  2  6  2  0
  3  4  1  0
  3  8  1  0
  3  9  1  0
  4  5  1  0
  4 10  1  0
  4 11  1  0
  5  6  1  0
M  END
> <intraLJ>
-0.718    

> <intraEL>
-4.916    

> <intraDihe>
22.322    

> <interLJ>
0.000     

> <interEJ>
0.000     

> <gridLJ>
-2.320    

> <gridEL>
0.000     

> <totalE>
14.369    

> <LGFE>
-2.320  

> <LE>
-0.387  

> <SMILES>
OC1=NOCC1

> <atom.dprop.GFE>
-0.62 -0.06 -0.017 -0.084 -0.66 -0.88 0 0 0 0 0

> <atom.prop.CLASS>
MEOO GEHC PRPC PRPC GENA GENA NCLA NCLA NCLA NCLA NCLA

$$$$
