67
     RDKit          3D

 15 15  0  0  1  0  0  0  0  0999 V2000
  -26.0457  -16.9380    6.9913 O   0  0  0  0  0  0  0  0  0  0  0  0
  -24.6584  -17.2340    6.8203 C   0  0  0  0  0  0  0  0  0  0  0  0
  -24.3437  -18.7259    6.8907 C   0  0  0  0  0  0  0  0  0  0  0  0
  -23.0842  -18.8428    6.2552 O   0  0  0  0  0  0  0  0  0  0  0  0
  -23.1003  -17.9670    5.1344 C   0  0  0  0  0  0  0  0  0  0  0  0
  -24.1587  -16.8890    5.4079 C   0  0  0  0  0  0  0  0  0  0  0  0
  -25.2264  -16.9901    4.4804 O   0  0  0  0  0  0  0  0  0  0  0  0
  -26.2970  -17.1048    7.9058 H   0  0  0  0  0  0  0  0  0  0  0  0
  -24.0523  -16.7025    7.5559 H   0  0  0  0  0  0  0  0  0  0  0  0
  -25.0958  -19.2892    6.3352 H   0  0  0  0  0  0  0  0  0  0  0  0
  -24.2940  -19.0730    7.9234 H   0  0  0  0  0  0  0  0  0  0  0  0
  -22.1181  -17.5127    4.9987 H   0  0  0  0  0  0  0  0  0  0  0  0
  -23.3707  -18.5230    4.2349 H   0  0  0  0  0  0  0  0  0  0  0  0
  -23.7190  -15.8909    5.3882 H   0  0  0  0  0  0  0  0  0  0  0  0
  -26.0261  -16.8680    5.0150 H   0  0  0  0  0  0  0  0  0  0  0  0
  1  2  1  0
  1  8  1  0
  2  3  1  0
  2  6  1  0
  2  9  1  0
  3  4  1  0
  3 10  1  0
  3 11  1  0
  4  5  1  0
  5  6  1  0
  5 12  1  0
  5 13  1  0
  6  7  1  0
  6 14  1  0
  7 15  1  0
M  END
> <intraLJ>
4.089     

> <intraEL>
1.909     

> <intraDihe>
14.436    

> <interLJ>
0.000     

> <interEJ>
0.000     

> <gridLJ>
-2.537    

> <gridEL>
0.000     

> <totalE>
17.897    

> <LGFE>
-2.537  

> <LE>
-0.362  

> <SMILES>
OC1COCC1O

> <atom.dprop.GFE>
-0.5 -0.43 -0.4 -0.28 -0.27 -0.35 -0.31 0 0 0 0 0 0 0 0

> <atom.prop.CLASS>
MEOO PRPC PRPC GENA PRPC PRPC MEOO NCLA NCLA NCLA NCLA NCLA NCLA NCLA NCLA

$$$$
