29_1
     RDKit          3D

 12 12  0  0  0  0  0  0  0  0999 V2000
  -16.1787   -6.9260   -5.7685 N   0  0  0  0  0  0  0  0  0  0  0  0
  -16.3455   -8.1789   -6.3448 C   0  0  0  0  0  0  0  0  0  0  0  0
  -15.9618   -9.3524   -5.7837 C   0  0  0  0  0  0  0  0  0  0  0  0
  -16.3692  -10.6575   -6.8236 S   0  0  0  0  0  0  0  0  0  0  0  0
  -17.0135   -9.4737   -7.9055 C   0  0  0  0  0  0  0  0  0  0  0  0
  -17.5818   -9.8513   -9.0942 N   0  0  0  0  0  0  0  0  0  0  0  0
  -16.9529   -8.2274   -7.5499 N   0  0  0  0  0  0  0  0  0  0  0  0
  -16.7972   -6.2758   -6.2716 H   0  0  0  0  0  0  0  0  0  0  0  0
  -16.3989   -6.9594   -4.7669 H   0  0  0  0  0  0  0  0  0  0  0  0
  -15.4754   -9.4932   -4.8561 H   0  0  0  0  0  0  0  0  0  0  0  0
  -18.2108   -9.1205   -9.4472 H   0  0  0  0  0  0  0  0  0  0  0  0
  -17.9741  -10.7996   -9.0732 H   0  0  0  0  0  0  0  0  0  0  0  0
  1  2  1  0
  1  8  1  0
  1  9  1  0
  2  3  2  0
  2  7  1  0
  3  4  1  0
  3 10  1  0
  4  5  1  0
  5  6  1  0
  5  7  2  0
  6 11  1  0
  6 12  1  0
M  END
> <intraLJ>
-0.273    

> <intraEL>
-13.389   

> <intraDihe>
3.347     

> <interLJ>
0.000     

> <interEJ>
0.000     

> <gridLJ>
-2.417    

> <gridEL>
0.000     

> <totalE>
-12.733   

> <LGFE>
-2.417  

> <LE>
-0.345  

> <SMILES>
Nc1csc(N)n1

> <atom.dprop.GFE>
-1.4 -0.13 -0.1 -0.074 -0.058 -0.014 -0.66 0 0 0 0 0

> <atom.prop.CLASS>
GEND GEHC GEHC PRPC GEHC GEND GENA NCLA NCLA NCLA NCLA NCLA

$$$$
