70_1
     RDKit          3D

 12 12  0  0  0  0  0  0  0  0999 V2000
   -5.3283   16.0838    2.3709 N   0  0  0  0  0  0  0  0  0  0  0  0
   -6.6230   15.5567    2.5542 C   0  0  0  0  0  0  0  0  0  0  0  0
   -7.8090   15.9963    2.0750 C   0  0  0  0  0  0  0  0  0  0  0  0
   -8.7508   15.1025    2.5647 C   0  0  0  0  0  0  0  0  0  0  0  0
  -10.0750   15.1150    2.3709 O   0  0  0  0  0  0  0  0  0  0  0  0
   -8.2626   14.1532    3.2958 N   0  0  0  0  0  0  0  0  0  0  0  0
   -6.9070   14.4379    3.2834 N   0  0  0  0  0  0  0  0  0  0  0  0
   -4.6590   15.9121    3.1368 H   0  0  0  0  0  0  0  0  0  0  0  0
   -5.3210   17.0657    2.0467 H   0  0  0  0  0  0  0  0  0  0  0  0
   -7.9839   16.8359    1.4577 H   0  0  0  0  0  0  0  0  0  0  0  0
  -10.3338   14.3219    2.8772 H   0  0  0  0  0  0  0  0  0  0  0  0
   -6.1922   13.8633    3.7609 H   0  0  0  0  0  0  0  0  0  0  0  0
  1  2  1  0
  1  8  1  0
  1  9  1  0
  2  3  2  0
  2  7  1  0
  3  4  1  0
  3 10  1  0
  4  5  1  0
  4  6  2  0
  5 11  1  0
  6  7  1  0
  7 12  1  0
M  END
> <intraLJ>
-0.707    

> <intraEL>
-16.624   

> <intraDihe>
2.009     

> <interLJ>
0.000     

> <interEJ>
0.000     

> <gridLJ>
-2.469    

> <gridEL>
0.000     

> <totalE>
-17.790   

> <LGFE>
-2.469  

> <LE>
-0.353  

> <SMILES>
Nc1cc(O)n[nH]1

> <atom.dprop.GFE>
-0.5 -0.16 -0.11 -0.17 -0.47 -0.46 -0.6 0 0 0 0 0

> <atom.prop.CLASS>
GEND GEHC GEHC GEHC MEOO GENA GEND NCLA NCLA NCLA NCLA NCLA

$$$$
