2_1
     RDKit          3D

 15 15  0  0  0  0  0  0  0  0999 V2000
  -20.4177    0.7084   29.2473 C   0  0  0  0  0  0  0  0  0  0  0  0
  -21.7239    0.7053   30.0629 C   0  0  0  0  0  0  0  0  0  0  0  0
  -21.7620   -0.3989   30.9685 O   0  0  0  0  0  0  0  0  0  0  0  0
  -21.6437   -1.6465   30.2826 C   0  0  0  0  0  0  0  0  0  0  0  0
  -20.3348   -1.7121   29.4730 C   0  0  0  0  0  0  0  0  0  0  0  0
  -20.2246   -0.5750   28.5217 N   0  0  0  0  0  0  0  0  0  0  0  0
  -19.5883    0.8689   29.9393 H   0  0  0  0  0  0  0  0  0  0  0  0
  -20.4420    1.5353   28.5365 H   0  0  0  0  0  0  0  0  0  0  0  0
  -22.5691    0.6460   29.3762 H   0  0  0  0  0  0  0  0  0  0  0  0
  -21.7974    1.6352   30.6274 H   0  0  0  0  0  0  0  0  0  0  0  0
  -22.4863   -1.7735   29.6018 H   0  0  0  0  0  0  0  0  0  0  0  0
  -21.6565   -2.4594   31.0090 H   0  0  0  0  0  0  0  0  0  0  0  0
  -20.2991   -2.6558   28.9273 H   0  0  0  0  0  0  0  0  0  0  0  0
  -19.5000   -1.6860   30.1766 H   0  0  0  0  0  0  0  0  0  0  0  0
  -19.3323   -0.5896   28.0413 H   0  0  0  0  0  0  0  0  0  0  0  0
  1  2  1  0
  1  6  1  0
  1  7  1  0
  1  8  1  0
  2  3  1  0
  2  9  1  0
  2 10  1  0
  3  4  1  0
  4  5  1  0
  4 11  1  0
  4 12  1  0
  5  6  1  0
  5 13  1  0
  5 14  1  0
  6 15  1  0
M  END
> <intraLJ>
0.516     

> <intraEL>
2.915     

> <intraDihe>
4.772     

> <interLJ>
0.000     

> <interEJ>
0.000     

> <gridLJ>
-2.332    

> <gridEL>
0.000     

> <totalE>
5.871     

> <LGFE>
-2.332  

> <LE>
-0.389  

> <SMILES>
C1COCCN1

> <atom.dprop.GFE>
-0.33 -0.32 -0.58 -0.25 -0.27 -0.59 0 0 0 0 0 0 0 0 0

> <atom.prop.CLASS>
PRPC PRPC GENA PRPC PRPC GEND NCLA NCLA NCLA NCLA NCLA NCLA NCLA NCLA NCLA

$$$$
