20_1
     RDKit          3D

 17 17  0  0  0  0  0  0  0  0999 V2000
   19.8998   -2.4624  -13.5575 N   0  0  0  0  0  0  0  0  0  0  0  0
   20.3422   -3.4509  -12.5677 C   0  0  0  0  0  0  0  0  0  0  0  0
   19.4435   -3.4595  -11.3422 C   0  0  0  0  0  0  0  0  0  0  0  0
   20.2932   -4.1409  -10.2651 C   0  0  0  0  0  0  0  0  0  0  0  0
   21.7516   -3.8545  -10.6494 C   0  0  0  0  0  0  0  0  0  0  0  0
   21.6928   -3.0837  -11.9720 C   0  0  0  0  0  0  0  0  0  0  0  0
   18.9784   -2.7028  -13.8933 H   0  0  0  0  0  0  0  0  0  0  0  0
   20.5486   -2.4389  -14.3318 H   0  0  0  0  0  0  0  0  0  0  0  0
   20.3889   -4.4542  -12.9991 H   0  0  0  0  0  0  0  0  0  0  0  0
   18.5165   -4.0016  -11.5298 H   0  0  0  0  0  0  0  0  0  0  0  0
   19.2261   -2.4321  -11.0437 H   0  0  0  0  0  0  0  0  0  0  0  0
   20.1161   -5.2177  -10.2825 H   0  0  0  0  0  0  0  0  0  0  0  0
   20.0577   -3.7423   -9.2772 H   0  0  0  0  0  0  0  0  0  0  0  0
   22.2862   -4.7963  -10.7874 H   0  0  0  0  0  0  0  0  0  0  0  0
   22.2491   -3.2573   -9.8831 H   0  0  0  0  0  0  0  0  0  0  0  0
   21.7193   -2.0112  -11.7716 H   0  0  0  0  0  0  0  0  0  0  0  0
   22.5101   -3.3599  -12.6387 H   0  0  0  0  0  0  0  0  0  0  0  0
  1  2  1  0
  1  7  1  0
  1  8  1  0
  2  3  1  0
  2  6  1  0
  2  9  1  0
  3  4  1  0
  3 10  1  0
  3 11  1  0
  4  5  1  0
  4 12  1  0
  4 13  1  0
  5  6  1  0
  5 14  1  0
  5 15  1  0
  6 16  1  0
  6 17  1  0
M  END
> <intraLJ>
0.465     

> <intraEL>
-1.894    

> <intraDihe>
13.208    

> <interLJ>
0.000     

> <interEJ>
0.000     

> <gridLJ>
-2.327    

> <gridEL>
0.000     

> <totalE>
9.452     

> <LGFE>
-2.327  

> <LE>
-0.388  

> <SMILES>
NC1CCCC1

> <atom.dprop.GFE>
-0.84 -0.36 -0.31 -0.27 -0.27 -0.28 0 0 0 0 0 0 0 0 0 0 0

> <atom.prop.CLASS>
GEND PRPC PRPC PRPC PRPC PRPC NCLA NCLA NCLA NCLA NCLA NCLA NCLA NCLA NCLA NCLA NCLA

$$$$
