6
     RDKit          3D

 10 10  0  0  0  0  0  0  0  0999 V2000
  -29.8910   14.5468   20.0828 N   0  0  0  0  0  0  0  0  0  0  0  0
  -28.9398   14.1529   19.1608 C   0  0  0  0  0  0  0  0  0  0  0  0
  -27.9823   13.1644   19.3325 C   0  0  0  0  0  0  0  0  0  0  0  0
  -27.3041   13.1393   18.1779 C   0  0  0  0  0  0  0  0  0  0  0  0
  -27.8380   14.0656   17.3655 O   0  0  0  0  0  0  0  0  0  0  0  0
  -28.8640   14.6932   17.9981 N   0  0  0  0  0  0  0  0  0  0  0  0
  -30.6534   15.0432   19.6034 H   0  0  0  0  0  0  0  0  0  0  0  0
  -30.2116   13.7696   20.6716 H   0  0  0  0  0  0  0  0  0  0  0  0
  -27.8182   12.5675   20.1893 H   0  0  0  0  0  0  0  0  0  0  0  0
  -26.4866   12.5430   17.8617 H   0  0  0  0  0  0  0  0  0  0  0  0
  1  2  1  0
  1  7  1  0
  1  8  1  0
  2  3  1  0
  2  6  2  0
  3  4  2  0
  3  9  1  0
  4  5  1  0
  4 10  1  0
  5  6  1  0
M  END
> <intraLJ>
-0.275    

> <intraEL>
-7.962    

> <intraDihe>
1.578     

> <interLJ>
0.000     

> <interEJ>
0.000     

> <gridLJ>
-2.496    

> <gridEL>
0.000     

> <totalE>
-9.156    

> <LGFE>
-2.496  

> <LE>
-0.416  

> <SMILES>
Nc1ccon1

> <atom.dprop.GFE>
-0.36 -0.17 -0.19 -0.19 -0.79 -0.81 0 0 0 0

> <atom.prop.CLASS>
GEND GEHC GEHC GEHC GENA GENA NCLA NCLA NCLA NCLA

$$$$
