74_2
     RDKit          3D

 12 12  0  0  0  0  0  0  0  0999 V2000
   -4.9059   10.3934    5.3059 O   0  0  0  0  0  0  0  0  0  0  0  0
   -5.7959   10.2795    6.1494 C   0  0  0  0  0  0  0  0  0  0  0  0
   -5.6137   10.1783    7.5664 C   0  0  0  0  0  0  0  0  0  0  0  0
   -6.6877   10.0564    8.3979 C   0  0  0  0  0  0  0  0  0  0  0  0
   -8.0033   10.0312    7.8480 C   0  0  0  0  0  0  0  0  0  0  0  0
   -8.1836   10.1272    6.4969 C   0  0  0  0  0  0  0  0  0  0  0  0
   -7.0777   10.2496    5.6716 N   0  0  0  0  0  0  0  0  0  0  0  0
   -4.6225   10.2020    7.9368 H   0  0  0  0  0  0  0  0  0  0  0  0
   -6.5553    9.9815    9.4480 H   0  0  0  0  0  0  0  0  0  0  0  0
   -8.8356    9.9366    8.4981 H   0  0  0  0  0  0  0  0  0  0  0  0
   -9.1277   10.1161    6.0095 H   0  0  0  0  0  0  0  0  0  0  0  0
   -7.1691   10.3252    4.6486 H   0  0  0  0  0  0  0  0  0  0  0  0
  1  2  2  0
  2  3  1  0
  2  7  1  0
  3  4  2  0
  3  8  1  0
  4  5  1  0
  4  9  1  0
  5  6  2  0
  5 10  1  0
  6  7  1  0
  6 11  1  0
  7 12  1  0
M  END
> <intraLJ>
7.690     

> <intraEL>
-2.793    

> <intraDihe>
0.000     

> <interLJ>
0.000     

> <interEJ>
0.000     

> <gridLJ>
-2.261    

> <gridEL>
0.000     

> <totalE>
2.636     

> <LGFE>
-2.261  

> <LE>
-0.323  

> <SMILES>
O=c1cccc[nH]1

> <atom.dprop.GFE>
-1.2 -0.23 0.028 -0.1 -0.081 -0.034 -0.65 0 0 0 0 0

> <atom.prop.CLASS>
GENA GEHC BENC BENC BENC BENC GEND NCLA NCLA NCLA NCLA NCLA

$$$$
