6
     RDKit          3D

 10 10  0  0  0  0  0  0  0  0999 V2000
    0.2384   -1.9864   -3.3800 N   0  0  0  0  0  0  0  0  0  0  0  0
    0.8944   -2.1498   -4.5855 C   0  0  0  0  0  0  0  0  0  0  0  0
    2.2555   -2.0089   -4.8111 C   0  0  0  0  0  0  0  0  0  0  0  0
    2.4160   -2.2700   -6.1149 C   0  0  0  0  0  0  0  0  0  0  0  0
    1.2091   -2.5533   -6.6306 O   0  0  0  0  0  0  0  0  0  0  0  0
    0.2644   -2.4733   -5.6570 N   0  0  0  0  0  0  0  0  0  0  0  0
   -0.6767   -2.4540   -3.4174 H   0  0  0  0  0  0  0  0  0  0  0  0
    0.8138   -2.2705   -2.5790 H   0  0  0  0  0  0  0  0  0  0  0  0
    3.0014   -1.7452   -4.1101 H   0  0  0  0  0  0  0  0  0  0  0  0
    3.2843   -2.2789   -6.7229 H   0  0  0  0  0  0  0  0  0  0  0  0
  1  2  1  0
  1  7  1  0
  1  8  1  0
  2  3  1  0
  2  6  2  0
  3  4  2  0
  3  9  1  0
  4  5  1  0
  4 10  1  0
  5  6  1  0
M  END
> <intraLJ>
-0.275    

> <intraEL>
-7.962    

> <intraDihe>
1.578     

> <interLJ>
0.000     

> <interEJ>
0.000     

> <gridLJ>
-4.951    

> <gridEL>
0.000     

> <totalE>
-11.611   

> <LGFE>
-4.951  

> <LE>
-0.825  

> <SMILES>
Nc1ccon1

> <atom.dprop.GFE>
-0.77 -0.15 -0.27 -0.22 -1.8 -1.8 0 0 0 0

> <atom.prop.CLASS>
GEND GEHC GEHC GEHC GENA GENA NCLA NCLA NCLA NCLA

$$$$
