35_3
     RDKit          3D

 10 10  0  0  0  0  0  0  0  0999 V2000
   20.7528   -1.6454  -33.7103 N   0  0  0  0  0  0  0  0  0  0  0  0
   19.9181   -1.5012  -34.8004 C   0  0  0  0  0  0  0  0  0  0  0  0
   20.1460   -0.7228  -35.7929 N   0  0  0  0  0  0  0  0  0  0  0  0
   19.0648   -0.9249  -36.5858 C   0  0  0  0  0  0  0  0  0  0  0  0
   18.1948   -1.7776  -36.1373 N   0  0  0  0  0  0  0  0  0  0  0  0
   18.7596   -2.1532  -34.9766 N   0  0  0  0  0  0  0  0  0  0  0  0
   20.2971   -1.8289  -32.8080 H   0  0  0  0  0  0  0  0  0  0  0  0
   21.4646   -0.8995  -33.6820 H   0  0  0  0  0  0  0  0  0  0  0  0
   18.9359   -0.4207  -37.5125 H   0  0  0  0  0  0  0  0  0  0  0  0
   18.3719   -2.8494  -34.3207 H   0  0  0  0  0  0  0  0  0  0  0  0
  1  2  1  0
  1  7  1  0
  1  8  1  0
  2  3  2  0
  2  6  1  0
  3  4  1  0
  4  5  2  0
  4  9  1  0
  5  6  1  0
  6 10  1  0
M  END
> <intraLJ>
-0.206    

> <intraEL>
-6.323    

> <intraDihe>
2.580     

> <interLJ>
0.000     

> <interEJ>
0.000     

> <gridLJ>
-3.306    

> <gridEL>
0.000     

> <totalE>
-7.255    

> <LGFE>
-3.306  

> <LE>
-0.551  

> <SMILES>
Nc1ncn[nH]1

> <atom.dprop.GFE>
-0.35 -0.1 -0.86 -0.038 -1.4 -0.59 0 0 0 0

> <atom.prop.CLASS>
GEND GEHC GENA GEHC GENA GEND NCLA NCLA NCLA NCLA

$$$$
