17_2
     RDKit          3D

 16 16  0  0  0  0  0  0  0  0999 V2000
   -5.2413   -8.8559    1.3724 N   0  0  0  0  0  0  0  0  0  0  0  0
   -4.9428   -8.1219    2.4605 C   0  0  0  0  0  0  0  0  0  0  0  0
   -5.3128   -6.9688    2.4608 O   0  0  0  0  0  0  0  0  0  0  0  0
   -4.1688   -8.6571    3.6886 C   0  0  0  0  0  0  0  0  0  0  0  0
   -2.7369   -8.4031    3.6398 N   0  0  0  0  0  0  0  0  0  0  0  0
   -4.5973   -9.9379    4.3304 C   0  0  0  0  0  0  0  0  0  0  0  0
   -4.8083   -8.6113    5.0395 C   0  0  0  0  0  0  0  0  0  0  0  0
   -5.7510   -8.4017    0.6287 H   0  0  0  0  0  0  0  0  0  0  0  0
   -4.9757   -9.8228    1.2820 H   0  0  0  0  0  0  0  0  0  0  0  0
   -2.6092   -7.8843    2.7033 H   0  0  0  0  0  0  0  0  0  0  0  0
   -2.2339   -9.3391    3.6343 H   0  0  0  0  0  0  0  0  0  0  0  0
   -2.4803   -7.7843    4.4637 H   0  0  0  0  0  0  0  0  0  0  0  0
   -3.8311  -10.5830    4.7424 H   0  0  0  0  0  0  0  0  0  0  0  0
   -5.4833  -10.4181    3.9324 H   0  0  0  0  0  0  0  0  0  0  0  0
   -5.8289   -8.2507    5.0931 H   0  0  0  0  0  0  0  0  0  0  0  0
   -4.1752   -8.4231    5.8975 H   0  0  0  0  0  0  0  0  0  0  0  0
  1  2  1  0
  1  8  1  0
  1  9  1  0
  2  3  2  0
  2  4  1  0
  4  5  1  0
  4  6  1  0
  4  7  1  0
  5 10  1  0
  5 11  1  0
  5 12  1  0
  6  7  1  0
  6 13  1  0
  6 14  1  0
  7 15  1  0
  7 16  1  0
M  CHG  1   5   1
M  END
> <intraLJ>
-0.440    

> <intraEL>
0.100     

> <intraDihe>
6.326     

> <interLJ>
0.000     

> <interEJ>
0.000     

> <gridLJ>
-2.261    

> <gridEL>
0.000     

> <totalE>
3.725     

> <LGFE>
-2.261  

> <LE>
-0.323  

> <SMILES>
NC(=O)C1([NH3+])CC1

> <atom.dprop.GFE>
-0.82 0 -1.3 -0.13 0.071 -0.05 -0.075 0 0 0 0 0 0 0 0 0

> <atom.prop.CLASS>
GEND NCLA GENA PRPC MAMN PRPC PRPC NCLA NCLA NCLA NCLA NCLA NCLA NCLA NCLA NCLA

$$$$
