21_2
     RDKit          3D

 17 16  0  0  0  0  0  0  0  0999 V2000
  -34.0897   -4.3135   10.9387 C   0  0  0  0  0  0  0  0  0  0  0  0
  -33.5158   -2.9072   11.2218 C   0  0  0  0  0  0  0  0  0  0  0  0
  -34.3243   -1.8964   10.3822 C   0  0  0  0  0  0  0  0  0  0  0  0
  -32.0665   -2.8636   10.7664 C   0  0  0  0  0  0  0  0  0  0  0  0
  -31.1455   -2.5140   11.6067 N   0  0  0  0  0  0  0  0  0  0  0  0
  -29.8560   -2.4320   11.3721 O   0  0  0  0  0  0  0  0  0  0  0  0
  -31.6552   -3.1763    9.5340 N   0  0  0  0  0  0  0  0  0  0  0  0
  -35.1116   -4.3461   11.3203 H   0  0  0  0  0  0  0  0  0  0  0  0
  -33.4783   -5.0458   11.4672 H   0  0  0  0  0  0  0  0  0  0  0  0
  -34.0902   -4.5198    9.8679 H   0  0  0  0  0  0  0  0  0  0  0  0
  -33.5925   -2.6728   12.2754 H   0  0  0  0  0  0  0  0  0  0  0  0
  -34.2820   -2.1629    9.3250 H   0  0  0  0  0  0  0  0  0  0  0  0
  -33.8998   -0.9040   10.5391 H   0  0  0  0  0  0  0  0  0  0  0  0
  -35.3583   -1.9112   10.7286 H   0  0  0  0  0  0  0  0  0  0  0  0
  -31.5552   -2.2909   12.5312 H   0  0  0  0  0  0  0  0  0  0  0  0
  -30.6440   -3.1189    9.3424 H   0  0  0  0  0  0  0  0  0  0  0  0
  -32.3233   -3.4782    8.8153 H   0  0  0  0  0  0  0  0  0  0  0  0
  1  2  1  0
  1  8  1  0
  1  9  1  0
  1 10  1  0
  2  3  1  0
  2  4  1  0
  2 11  1  0
  3 12  1  0
  3 13  1  0
  3 14  1  0
  4  5  2  0
  4  7  1  0
  5  6  1  0
  5 15  1  0
  7 16  1  0
  7 17  1  0
M  CHG  2   5   1   6  -1
M  END
> <intraLJ>
4.543     

> <intraEL>
-0.793    

> <intraDihe>
0.560     

> <interLJ>
0.000     

> <interEJ>
0.000     

> <gridLJ>
-3.436    

> <gridEL>
0.000     

> <totalE>
0.873     

> <LGFE>
-3.436  

> <LE>
-0.491  

> <SMILES>
CC(C)C(N)=[NH+][O-]

> <atom.dprop.GFE>
-0.082 0.13 -0.001 -3.5 0 0 0 0 0 0 0 0 0 0 0 0 0

> <atom.prop.CLASS>
PRPC PRPC PRPC MAMC NCLA NCLA NCLA NCLA NCLA NCLA NCLA NCLA NCLA NCLA NCLA NCLA NCLA

$$$$
