70_1
     RDKit          3D

 12 12  0  0  0  0  0  0  0  0999 V2000
  -35.9382    0.9826   32.8150 N   0  0  0  0  0  0  0  0  0  0  0  0
  -35.6100    2.3183   32.5049 C   0  0  0  0  0  0  0  0  0  0  0  0
  -36.4226    3.3714   32.2596 C   0  0  0  0  0  0  0  0  0  0  0  0
  -35.5690    4.4375   32.0141 C   0  0  0  0  0  0  0  0  0  0  0  0
  -35.8957    5.7006   31.7157 O   0  0  0  0  0  0  0  0  0  0  0  0
  -34.3102    4.1470   32.0872 N   0  0  0  0  0  0  0  0  0  0  0  0
  -34.3361    2.7994   32.4068 N   0  0  0  0  0  0  0  0  0  0  0  0
  -35.2517    0.2702   32.5228 H   0  0  0  0  0  0  0  0  0  0  0  0
  -36.9094    0.7253   32.5703 H   0  0  0  0  0  0  0  0  0  0  0  0
  -37.4792    3.3841   32.2582 H   0  0  0  0  0  0  0  0  0  0  0  0
  -35.0076    6.0971   31.6351 H   0  0  0  0  0  0  0  0  0  0  0  0
  -33.4893    2.2273   32.5643 H   0  0  0  0  0  0  0  0  0  0  0  0
  1  2  1  0
  1  8  1  0
  1  9  1  0
  2  3  2  0
  2  7  1  0
  3  4  1  0
  3 10  1  0
  4  5  1  0
  4  6  2  0
  5 11  1  0
  6  7  1  0
  7 12  1  0
M  END
> <intraLJ>
-0.707    

> <intraEL>
-16.624   

> <intraDihe>
2.009     

> <interLJ>
0.000     

> <interEJ>
0.000     

> <gridLJ>
-2.241    

> <gridEL>
0.000     

> <totalE>
-17.563   

> <LGFE>
-2.241  

> <LE>
-0.320  

> <SMILES>
Nc1cc(O)n[nH]1

> <atom.dprop.GFE>
-0.58 -0.15 -0.1 -0.055 -0.19 -0.77 -0.4 0 0 0 0 0

> <atom.prop.CLASS>
GEND GEHC GEHC GEHC MEOO GENA GEND NCLA NCLA NCLA NCLA NCLA

$$$$
