37_1
     RDKit          3D

 12 11  0  0  1  0  0  0  0  0999 V2000
  -38.5874   -2.5441   26.8054 C   0  0  0  0  0  0  0  0  0  0  0  0
  -39.1083   -2.6160   25.3608 C   0  0  0  0  0  0  0  0  0  0  0  0
  -40.3989   -1.9358   25.3678 O   0  0  0  0  0  0  0  0  0  0  0  0
  -39.2942   -4.0878   24.9653 C   0  0  0  0  0  0  0  0  0  0  0  0
  -40.3737   -4.6479   24.8128 O   0  0  0  0  0  0  0  0  0  0  0  0
  -38.2254   -4.8980   24.8328 O   0  0  0  0  0  0  0  0  0  0  0  0
  -37.6177   -3.0412   26.8476 H   0  0  0  0  0  0  0  0  0  0  0  0
  -39.3021   -3.0377   27.4648 H   0  0  0  0  0  0  0  0  0  0  0  0
  -38.4865   -1.4924   27.0750 H   0  0  0  0  0  0  0  0  0  0  0  0
  -38.4137   -2.1347   24.6841 H   0  0  0  0  0  0  0  0  0  0  0  0
  -41.0768   -2.5349   25.7342 H   0  0  0  0  0  0  0  0  0  0  0  0
  -38.6108   -5.7453   24.6042 H   0  0  0  0  0  0  0  0  0  0  0  0
  1  2  1  0
  1  7  1  0
  1  8  1  0
  1  9  1  0
  2  3  1  0
  2  4  1  0
  2 10  1  0
  3 11  1  0
  4  5  2  0
  4  6  1  0
  6 12  1  0
M  END
> <intraLJ>
-0.231    

> <intraEL>
3.043     

> <intraDihe>
2.575     

> <interLJ>
0.000     

> <interEJ>
0.000     

> <gridLJ>
-2.230    

> <gridEL>
0.000     

> <totalE>
3.157     

> <LGFE>
-2.230  

> <LE>
-0.372  

> <SMILES>
CC(O)C(=O)O

> <atom.dprop.GFE>
-0.42 -0.47 -0.41 0 -0.47 -0.47 0 0 0 0 0 0

> <atom.prop.CLASS>
PRPC PRPC MEOO NCLA GENA MEOO NCLA NCLA NCLA NCLA NCLA NCLA

$$$$
