58
     RDKit          3D

 12 12  0  0  0  0  0  0  0  0999 V2000
   10.3389    8.9526  -40.7650 O   0  0  0  0  0  0  0  0  0  0  0  0
   10.1573   10.1541  -40.8118 C   0  0  0  0  0  0  0  0  0  0  0  0
   10.7713   11.0021  -41.6438 N   0  0  0  0  0  0  0  0  0  0  0  0
   10.4626   12.3908  -41.3307 C   0  0  0  0  0  0  0  0  0  0  0  0
    9.1992   12.2335  -40.4623 C   0  0  0  0  0  0  0  0  0  0  0  0
    9.3111   10.8442  -40.0402 N   0  0  0  0  0  0  0  0  0  0  0  0
   11.6464   10.6780  -42.0726 H   0  0  0  0  0  0  0  0  0  0  0  0
   10.2553   12.9780  -42.2267 H   0  0  0  0  0  0  0  0  0  0  0  0
   11.2678   12.8336  -40.7432 H   0  0  0  0  0  0  0  0  0  0  0  0
    8.3054   12.3725  -41.0733 H   0  0  0  0  0  0  0  0  0  0  0  0
    9.2138   12.9230  -39.6169 H   0  0  0  0  0  0  0  0  0  0  0  0
    8.5666   10.3104  -39.5781 H   0  0  0  0  0  0  0  0  0  0  0  0
  1  2  2  0
  2  3  1  0
  2  6  1  0
  3  4  1  0
  3  7  1  0
  4  5  1  0
  4  8  1  0
  4  9  1  0
  5  6  1  0
  5 10  1  0
  5 11  1  0
  6 12  1  0
M  END
> <intraLJ>
-0.226    

> <intraEL>
-6.154    

> <intraDihe>
4.218     

> <interLJ>
0.000     

> <interEJ>
0.000     

> <gridLJ>
-2.087    

> <gridEL>
0.000     

> <totalE>
-4.248    

> <LGFE>
-2.087  

> <LE>
-0.348  

> <SMILES>
O=C1NCCN1

> <atom.dprop.GFE>
-1.2 -0.0047 -0.39 -0.22 -0.17 -0.13 0 0 0 0 0 0

> <atom.prop.CLASS>
GENA GEHC GEND PRPC PRPC GEND NCLA NCLA NCLA NCLA NCLA NCLA

$$$$
