31_1
     RDKit          3D

 15 15  0  0  0  0  0  0  0  0999 V2000
  -15.1052    6.5264   -0.8974 O   0  0  0  0  0  0  0  0  0  0  0  0
  -15.6727    6.9692   -1.8864 C   0  0  0  0  0  0  0  0  0  0  0  0
  -16.7389    6.1340   -2.6448 C   0  0  0  0  0  0  0  0  0  0  0  0
  -17.5918    6.8944   -3.6215 N   0  0  0  0  0  0  0  0  0  0  0  0
  -16.7619    7.8960   -4.3424 C   0  0  0  0  0  0  0  0  0  0  0  0
  -16.1203    8.8839   -3.3518 C   0  0  0  0  0  0  0  0  0  0  0  0
  -15.3170    8.1613   -2.3663 N   0  0  0  0  0  0  0  0  0  0  0  0
  -17.3755    5.6439   -1.9073 H   0  0  0  0  0  0  0  0  0  0  0  0
  -16.2016    5.3581   -3.1892 H   0  0  0  0  0  0  0  0  0  0  0  0
  -18.3294    7.3685   -3.1140 H   0  0  0  0  0  0  0  0  0  0  0  0
  -17.3834    8.4490   -5.0493 H   0  0  0  0  0  0  0  0  0  0  0  0
  -15.9733    7.3887   -4.9027 H   0  0  0  0  0  0  0  0  0  0  0  0
  -16.9075    9.4442   -2.8449 H   0  0  0  0  0  0  0  0  0  0  0  0
  -15.4885    9.5825   -3.9033 H   0  0  0  0  0  0  0  0  0  0  0  0
  -14.5859    8.6361   -1.8631 H   0  0  0  0  0  0  0  0  0  0  0  0
  1  2  2  0
  2  3  1  0
  2  7  1  0
  3  4  1  0
  3  8  1  0
  3  9  1  0
  4  5  1  0
  4 10  1  0
  5  6  1  0
  5 11  1  0
  5 12  1  0
  6  7  1  0
  6 13  1  0
  6 14  1  0
  7 15  1  0
M  END
> <intraLJ>
0.615     

> <intraEL>
3.232     

> <intraDihe>
15.833    

> <interLJ>
0.000     

> <interEJ>
0.000     

> <gridLJ>
-5.485    

> <gridEL>
0.000     

> <totalE>
14.195    

> <LGFE>
-5.485  

> <LE>
-0.784  

> <SMILES>
O=C1CNCCN1

> <atom.dprop.GFE>
-2 0 -0.59 -0.8 -0.37 -0.32 -1.4 0 0 0 0 0 0 0 0

> <atom.prop.CLASS>
GENA NCLA PRPC GEND PRPC PRPC GEND NCLA NCLA NCLA NCLA NCLA NCLA NCLA NCLA

$$$$
