37_1
     RDKit          3D

 12 11  0  0  1  0  0  0  0  0999 V2000
   19.7592    7.1269   -7.4661 C   0  0  0  0  0  0  0  0  0  0  0  0
   20.8307    6.0486   -7.2375 C   0  0  0  0  0  0  0  0  0  0  0  0
   20.9589    5.9140   -5.7905 O   0  0  0  0  0  0  0  0  0  0  0  0
   22.1606    6.5249   -7.8389 C   0  0  0  0  0  0  0  0  0  0  0  0
   23.1420    6.8769   -7.1946 O   0  0  0  0  0  0  0  0  0  0  0  0
   22.2963    6.6580   -9.1731 O   0  0  0  0  0  0  0  0  0  0  0  0
   19.6277    7.2603   -8.5405 H   0  0  0  0  0  0  0  0  0  0  0  0
   20.0870    8.0568   -7.0000 H   0  0  0  0  0  0  0  0  0  0  0  0
   18.8309    6.7812   -7.0104 H   0  0  0  0  0  0  0  0  0  0  0  0
   20.5303    5.1142   -7.6943 H   0  0  0  0  0  0  0  0  0  0  0  0
   21.5005    6.6489   -5.4453 H   0  0  0  0  0  0  0  0  0  0  0  0
   23.1932    6.9789   -9.2784 H   0  0  0  0  0  0  0  0  0  0  0  0
  1  2  1  0
  1  7  1  0
  1  8  1  0
  1  9  1  0
  2  3  1  0
  2  4  1  0
  2 10  1  0
  3 11  1  0
  4  5  2  0
  4  6  1  0
  6 12  1  0
M  END
> <intraLJ>
-0.232    

> <intraEL>
3.042     

> <intraDihe>
2.578     

> <interLJ>
0.000     

> <interEJ>
0.000     

> <gridLJ>
-3.008    

> <gridEL>
0.000     

> <totalE>
2.380     

> <LGFE>
-3.008  

> <LE>
-0.501  

> <SMILES>
CC(O)C(=O)O

> <atom.dprop.GFE>
-0.46 -0.33 -0.36 0 -1.2 -0.62 0 0 0 0 0 0

> <atom.prop.CLASS>
PRPC PRPC MEOO NCLA GENA MEOO NCLA NCLA NCLA NCLA NCLA NCLA

$$$$
