11_3
     RDKit          3D

 11 11  0  0  0  0  0  0  0  0999 V2000
   21.5232   15.3479   -0.6027 O   0  0  0  0  0  0  0  0  0  0  0  0
   21.3581   15.0419   -1.8858 C   0  0  0  0  0  0  0  0  0  0  0  0
   20.1906   15.5077   -2.6828 C   0  0  0  0  0  0  0  0  0  0  0  0
   20.5711   14.8567   -4.0198 C   0  0  0  0  0  0  0  0  0  0  0  0
   21.8331   14.1641   -3.7371 O   0  0  0  0  0  0  0  0  0  0  0  0
   22.2192   14.3360   -2.4455 N   0  0  0  0  0  0  0  0  0  0  0  0
   22.3643   14.8965   -0.3957 H   0  0  0  0  0  0  0  0  0  0  0  0
   20.2042   16.5846   -2.7536 H   0  0  0  0  0  0  0  0  0  0  0  0
   19.2834   15.0800   -2.2823 H   0  0  0  0  0  0  0  0  0  0  0  0
   20.7263   15.6120   -4.7905 H   0  0  0  0  0  0  0  0  0  0  0  0
   19.8140   14.1365   -4.3317 H   0  0  0  0  0  0  0  0  0  0  0  0
  1  2  1  0
  1  7  1  0
  2  3  1  0
  2  6  2  0
  3  4  1  0
  3  8  1  0
  3  9  1  0
  4  5  1  0
  4 10  1  0
  4 11  1  0
  5  6  1  0
M  END
> <intraLJ>
-0.718    

> <intraEL>
-4.916    

> <intraDihe>
22.322    

> <interLJ>
0.000     

> <interEJ>
0.000     

> <gridLJ>
-3.117    

> <gridEL>
0.000     

> <totalE>
13.571    

> <LGFE>
-3.117  

> <LE>
-0.520  

> <SMILES>
OC1=NOCC1

> <atom.dprop.GFE>
-0.27 -0.12 -0.47 -0.61 -1 -0.6 0 0 0 0 0

> <atom.prop.CLASS>
MEOO GEHC PRPC PRPC GENA GENA NCLA NCLA NCLA NCLA NCLA

$$$$
