30_2
     RDKit          3D

 16 16  0  0  1  0  0  0  0  0999 V2000
  -43.1043    6.4542   20.2101 N   0  0  0  0  0  0  0  0  0  0  0  0
  -41.7333    5.9417   19.9421 C   0  0  0  0  0  0  0  0  0  0  0  0
  -41.0775    5.3272   21.1911 C   0  0  0  0  0  0  0  0  0  0  0  0
  -39.5846    5.6563   20.9878 C   0  0  0  0  0  0  0  0  0  0  0  0
  -39.6104    6.8881   20.2231 N   0  0  0  0  0  0  0  0  0  0  0  0
  -40.7396    7.0443   19.5632 C   0  0  0  0  0  0  0  0  0  0  0  0
  -41.0481    8.0183   18.8937 O   0  0  0  0  0  0  0  0  0  0  0  0
  -43.7537    5.7072   20.3992 H   0  0  0  0  0  0  0  0  0  0  0  0
  -43.3928    6.9859   19.3952 H   0  0  0  0  0  0  0  0  0  0  0  0
  -43.0687    7.1087   20.9790 H   0  0  0  0  0  0  0  0  0  0  0  0
  -41.7364    5.2104   19.1305 H   0  0  0  0  0  0  0  0  0  0  0  0
  -41.4256    5.8281   22.0957 H   0  0  0  0  0  0  0  0  0  0  0  0
  -41.2439    4.2515   21.2551 H   0  0  0  0  0  0  0  0  0  0  0  0
  -39.0899    4.8677   20.4143 H   0  0  0  0  0  0  0  0  0  0  0  0
  -39.0792    5.7883   21.9489 H   0  0  0  0  0  0  0  0  0  0  0  0
  -38.8348    7.5345   20.1426 H   0  0  0  0  0  0  0  0  0  0  0  0
  1  2  1  0
  1  8  1  0
  1  9  1  0
  1 10  1  0
  2  3  1  0
  2  6  1  0
  2 11  1  0
  3  4  1  0
  3 12  1  0
  3 13  1  0
  4  5  1  0
  4 14  1  0
  4 15  1  0
  5  6  1  0
  5 16  1  0
  6  7  2  0
M  CHG  1   1   1
M  END
> <intraLJ>
-0.328    

> <intraEL>
0.050     

> <intraDihe>
6.834     

> <interLJ>
0.000     

> <interEJ>
0.000     

> <gridLJ>
-3.232    

> <gridEL>
0.000     

> <totalE>
3.323     

> <LGFE>
-3.232  

> <LE>
-0.462  

> <SMILES>
[NH3+]C1CCNC1=O

> <atom.dprop.GFE>
-0.19 -0.43 -0.51 -0.56 -0.77 -0.23 -0.54 0 0 0 0 0 0 0 0 0

> <atom.prop.CLASS>
MAMN PRPC PRPC PRPC GEND GEHC GENA NCLA NCLA NCLA NCLA NCLA NCLA NCLA NCLA NCLA

$$$$
