35_2
     RDKit          3D

 10 10  0  0  0  0  0  0  0  0999 V2000
   -0.3617    1.1734    9.3531 N   0  0  0  0  0  0  0  0  0  0  0  0
   -1.1227    2.1730    8.7759 C   0  0  0  0  0  0  0  0  0  0  0  0
   -1.9438    1.9533    7.7578 N   0  0  0  0  0  0  0  0  0  0  0  0
   -2.5058    3.1288    7.4655 C   0  0  0  0  0  0  0  0  0  0  0  0
   -2.0490    4.0342    8.2644 N   0  0  0  0  0  0  0  0  0  0  0  0
   -1.1456    3.4200    9.1175 N   0  0  0  0  0  0  0  0  0  0  0  0
    0.0355    1.4813   10.2539 H   0  0  0  0  0  0  0  0  0  0  0  0
   -0.8001    0.2444    9.3885 H   0  0  0  0  0  0  0  0  0  0  0  0
   -2.0901    1.0511    7.2885 H   0  0  0  0  0  0  0  0  0  0  0  0
   -3.2104    3.2388    6.6814 H   0  0  0  0  0  0  0  0  0  0  0  0
  1  2  1  0
  1  7  1  0
  1  8  1  0
  2  3  1  0
  2  6  2  0
  3  4  1  0
  3  9  1  0
  4  5  2  0
  4 10  1  0
  5  6  1  0
M  END
> <intraLJ>
-0.237    

> <intraEL>
-7.007    

> <intraDihe>
2.733     

> <interLJ>
0.000     

> <interEJ>
0.000     

> <gridLJ>
-4.397    

> <gridEL>
0.000     

> <totalE>
-8.909    

> <LGFE>
-4.397  

> <LE>
-0.733  

> <SMILES>
Nc1nnc[nH]1

> <atom.dprop.GFE>
-1 -0.041 -1.1 -0.1 -1.1 -1.1 0 0 0 0

> <atom.prop.CLASS>
GEND GEHC GEND GEHC GENA GENA NCLA NCLA NCLA NCLA

$$$$
