11_3
     RDKit          3D

 11 11  0  0  0  0  0  0  0  0999 V2000
   -5.3833   -7.6827    2.4726 O   0  0  0  0  0  0  0  0  0  0  0  0
   -6.1582   -8.7619    2.4287 C   0  0  0  0  0  0  0  0  0  0  0  0
   -5.6308  -10.1230    2.1382 C   0  0  0  0  0  0  0  0  0  0  0  0
   -6.9562  -10.8911    2.2348 C   0  0  0  0  0  0  0  0  0  0  0  0
   -7.9501   -9.8572    2.5440 O   0  0  0  0  0  0  0  0  0  0  0  0
   -7.3788   -8.6281    2.6420 N   0  0  0  0  0  0  0  0  0  0  0  0
   -6.0293   -6.9806    2.6816 H   0  0  0  0  0  0  0  0  0  0  0  0
   -4.9467  -10.4226    2.9175 H   0  0  0  0  0  0  0  0  0  0  0  0
   -5.2329  -10.1519    1.1346 H   0  0  0  0  0  0  0  0  0  0  0  0
   -6.9224  -11.6264    3.0391 H   0  0  0  0  0  0  0  0  0  0  0  0
   -7.1999  -11.3684    1.2851 H   0  0  0  0  0  0  0  0  0  0  0  0
  1  2  1  0
  1  7  1  0
  2  3  1  0
  2  6  2  0
  3  4  1  0
  3  8  1  0
  3  9  1  0
  4  5  1  0
  4 10  1  0
  4 11  1  0
  5  6  1  0
M  END
> <intraLJ>
-0.718    

> <intraEL>
-4.916    

> <intraDihe>
22.322    

> <interLJ>
0.000     

> <interEJ>
0.000     

> <gridLJ>
-4.131    

> <gridEL>
0.000     

> <totalE>
12.558    

> <LGFE>
-4.131  

> <LE>
-0.689  

> <SMILES>
OC1=NOCC1

> <atom.dprop.GFE>
-1.2 -0.27 -0.25 -0.41 -1 -0.96 0 0 0 0 0

> <atom.prop.CLASS>
MEOO GEHC PRPC PRPC GENA GENA NCLA NCLA NCLA NCLA NCLA

$$$$
