46_1
     RDKit          3D

 14 14  0  0  0  0  0  0  0  0999 V2000
  -18.0229   -0.6709   22.8397 C   0  0  0  0  0  0  0  0  0  0  0  0
  -17.9440    0.2220   21.5896 C   0  0  0  0  0  0  0  0  0  0  0  0
  -16.4537    0.5089   21.4181 C   0  0  0  0  0  0  0  0  0  0  0  0
  -15.7655   -0.5939   22.1018 N   0  0  0  0  0  0  0  0  0  0  0  0
  -16.5762   -0.7913   23.3104 C   0  0  0  0  0  0  0  0  0  0  0  0
  -18.3959   -1.6568   22.5610 H   0  0  0  0  0  0  0  0  0  0  0  0
  -18.6494   -0.2291   23.6153 H   0  0  0  0  0  0  0  0  0  0  0  0
  -18.5027    1.1496   21.7208 H   0  0  0  0  0  0  0  0  0  0  0  0
  -18.3121   -0.3279   20.7229 H   0  0  0  0  0  0  0  0  0  0  0  0
  -16.2188    1.4536   21.9148 H   0  0  0  0  0  0  0  0  0  0  0  0
  -16.1738    0.5698   20.3639 H   0  0  0  0  0  0  0  0  0  0  0  0
  -14.7911   -0.3996   22.2975 H   0  0  0  0  0  0  0  0  0  0  0  0
  -16.3828   -1.7611   23.7740 H   0  0  0  0  0  0  0  0  0  0  0  0
  -16.3700    0.0071   24.0274 H   0  0  0  0  0  0  0  0  0  0  0  0
  1  2  1  0
  1  5  1  0
  1  6  1  0
  1  7  1  0
  2  3  1  0
  2  8  1  0
  2  9  1  0
  3  4  1  0
  3 10  1  0
  3 11  1  0
  4  5  1  0
  4 12  1  0
  5 13  1  0
  5 14  1  0
M  END
> <intraLJ>
-0.383    

> <intraEL>
0.415     

> <intraDihe>
8.071     

> <interLJ>
0.000     

> <interEJ>
0.000     

> <gridLJ>
-2.753    

> <gridEL>
0.000     

> <totalE>
5.350     

> <LGFE>
-2.753  

> <LE>
-0.551  

> <SMILES>
C1CCNC1

> <atom.dprop.GFE>
-0.51 -0.54 -0.58 -0.6 -0.52 0 0 0 0 0 0 0 0 0

> <atom.prop.CLASS>
PRPC PRPC PRPC GEND PRPC NCLA NCLA NCLA NCLA NCLA NCLA NCLA NCLA NCLA

$$$$
