6
     RDKit          3D

 10 10  0  0  0  0  0  0  0  0999 V2000
  -24.0271    3.0393    4.2631 N   0  0  0  0  0  0  0  0  0  0  0  0
  -24.4327    3.6558    5.4318 C   0  0  0  0  0  0  0  0  0  0  0  0
  -25.3310    3.1542    6.3616 C   0  0  0  0  0  0  0  0  0  0  0  0
  -25.3982    4.0926    7.3147 C   0  0  0  0  0  0  0  0  0  0  0  0
  -24.5776    5.0960    6.9644 O   0  0  0  0  0  0  0  0  0  0  0  0
  -23.9790    4.8060    5.7794 N   0  0  0  0  0  0  0  0  0  0  0  0
  -23.1447    3.4567    3.9395 H   0  0  0  0  0  0  0  0  0  0  0  0
  -23.9916    2.0173    4.3510 H   0  0  0  0  0  0  0  0  0  0  0  0
  -25.8543    2.2365    6.3228 H   0  0  0  0  0  0  0  0  0  0  0  0
  -25.9589    4.1355    8.2134 H   0  0  0  0  0  0  0  0  0  0  0  0
  1  2  1  0
  1  7  1  0
  1  8  1  0
  2  3  1  0
  2  6  2  0
  3  4  2  0
  3  9  1  0
  4  5  1  0
  4 10  1  0
  5  6  1  0
M  END
> <intraLJ>
-0.275    

> <intraEL>
-7.962    

> <intraDihe>
1.578     

> <interLJ>
0.000     

> <interEJ>
0.000     

> <gridLJ>
-3.598    

> <gridEL>
0.000     

> <totalE>
-10.258   

> <LGFE>
-3.598  

> <LE>
-0.600  

> <SMILES>
Nc1ccon1

> <atom.dprop.GFE>
-1.2 -0.19 -0.26 -0.26 -0.87 -0.86 0 0 0 0

> <atom.prop.CLASS>
GEND GEHC GEHC GEHC GENA GENA NCLA NCLA NCLA NCLA

$$$$
