57_2
     RDKit          3D

 14 14  0  0  0  0  0  0  0  0999 V2000
   21.7584    1.2275  -45.5872 O   0  0  0  0  0  0  0  0  0  0  0  0
   22.4654    1.6510  -44.6441 C   0  0  0  0  0  0  0  0  0  0  0  0
   23.1733    2.6804  -44.7447 O   0  0  0  0  0  0  0  0  0  0  0  0
   22.4107    0.9290  -43.3104 C   0  0  0  0  0  0  0  0  0  0  0  0
   23.7915    0.8171  -42.6020 C   0  0  0  0  0  0  0  0  0  0  0  0
   23.3617   -0.6217  -42.1926 C   0  0  0  0  0  0  0  0  0  0  0  0
   22.4294   -0.6223  -43.4388 C   0  0  0  0  0  0  0  0  0  0  0  0
   21.6179    1.3134  -42.6810 H   0  0  0  0  0  0  0  0  0  0  0  0
   23.9178    1.4953  -41.7684 H   0  0  0  0  0  0  0  0  0  0  0  0
   24.6280    0.8151  -43.2891 H   0  0  0  0  0  0  0  0  0  0  0  0
   22.8102   -0.6422  -41.2604 H   0  0  0  0  0  0  0  0  0  0  0  0
   24.1589   -1.3508  -42.2372 H   0  0  0  0  0  0  0  0  0  0  0  0
   22.9343   -0.9732  -44.3302 H   0  0  0  0  0  0  0  0  0  0  0  0
   21.4686   -1.0905  -43.2732 H   0  0  0  0  0  0  0  0  0  0  0  0
  1  2  2  0
  2  3  1  0
  2  4  1  0
  4  5  1  0
  4  7  1  0
  4  8  1  0
  5  6  1  0
  5  9  1  0
  5 10  1  0
  6  7  1  0
  6 11  1  0
  6 12  1  0
  7 13  1  0
  7 14  1  0
M  CHG  1   3  -1
M  END
> <intraLJ>
0.196     

> <intraEL>
2.089     

> <intraDihe>
17.601    

> <interLJ>
0.000     

> <interEJ>
0.000     

> <gridLJ>
-2.430    

> <gridEL>
0.000     

> <totalE>
17.456    

> <LGFE>
-2.430  

> <LE>
-0.347  

> <SMILES>
O=C([O-])C1CCC1

> <atom.dprop.GFE>
0 -1.9 0 -0.11 -0.15 -0.18 -0.14 0 0 0 0 0 0 0

> <atom.prop.CLASS>
NCLA ACEC NCLA PRPC PRPC PRPC PRPC NCLA NCLA NCLA NCLA NCLA NCLA NCLA

$$$$
