1
     RDKit          3D

  9  9  0  0  0  0  0  0  0  0999 V2000
   24.1350   -1.7519  -11.0968 Br  0  0  0  0  0  0  0  0  0  0  0  0
   22.4730   -2.4427  -11.6441 C   0  0  0  0  0  0  0  0  0  0  0  0
   21.8379   -3.5820  -11.1594 C   0  0  0  0  0  0  0  0  0  0  0  0
   20.6924   -3.7753  -11.7611 N   0  0  0  0  0  0  0  0  0  0  0  0
   20.5925   -2.7437  -12.6432 N   0  0  0  0  0  0  0  0  0  0  0  0
   21.6633   -1.9209  -12.5898 C   0  0  0  0  0  0  0  0  0  0  0  0
   22.2168   -4.2223  -10.4044 H   0  0  0  0  0  0  0  0  0  0  0  0
   19.7767   -2.6248  -13.2745 H   0  0  0  0  0  0  0  0  0  0  0  0
   21.7601   -1.0639  -13.2037 H   0  0  0  0  0  0  0  0  0  0  0  0
  1  2  1  0
  2  3  1  0
  2  6  2  0
  3  4  2  0
  3  7  1  0
  4  5  1  0
  5  6  1  0
  5  8  1  0
  6  9  1  0
M  END
> <intraLJ>
-0.882    

> <intraEL>
0.676     

> <intraDihe>
0.000     

> <interLJ>
0.000     

> <interEJ>
0.000     

> <gridLJ>
-2.239    

> <gridEL>
0.000     

> <totalE>
-2.445    

> <LGFE>
-2.239  

> <LE>
-0.373  

> <SMILES>
Brc1cn[nH]c1

> <atom.dprop.GFE>
-0.44 -0.086 -0.12 -0.73 -0.71 -0.15 0 0 0

> <atom.prop.CLASS>
GENA GEHC GEHC GENA GEND GEHC NCLA NCLA NCLA

$$$$
