53
     RDKit          3D

 16 16  0  0  0  0  0  0  0  0999 V2000
  -19.0696   -2.8812   28.9928 O   0  0  0  0  0  0  0  0  0  0  0  0
  -19.6232   -1.8003   29.1125 C   0  0  0  0  0  0  0  0  0  0  0  0
  -20.5671   -1.4937   30.2729 C   0  0  0  0  0  0  0  0  0  0  0  0
  -21.8462   -0.7664   29.7959 C   0  0  0  0  0  0  0  0  0  0  0  0
  -21.5866    0.2290   28.6346 C   0  0  0  0  0  0  0  0  0  0  0  0
  -20.0916    0.4589   28.3682 C   0  0  0  0  0  0  0  0  0  0  0  0
  -19.4701   -0.8452   28.2040 N   0  0  0  0  0  0  0  0  0  0  0  0
  -20.0316   -0.8550   30.9744 H   0  0  0  0  0  0  0  0  0  0  0  0
  -20.8328   -2.4237   30.7766 H   0  0  0  0  0  0  0  0  0  0  0  0
  -22.2892   -0.2385   30.6425 H   0  0  0  0  0  0  0  0  0  0  0  0
  -22.5650   -1.5135   29.4524 H   0  0  0  0  0  0  0  0  0  0  0  0
  -22.0665    1.1839   28.8533 H   0  0  0  0  0  0  0  0  0  0  0  0
  -22.0344   -0.1733   27.7244 H   0  0  0  0  0  0  0  0  0  0  0  0
  -19.6405    0.9887   29.2098 H   0  0  0  0  0  0  0  0  0  0  0  0
  -19.9668    1.0561   27.4624 H   0  0  0  0  0  0  0  0  0  0  0  0
  -18.8750   -1.0484   27.4179 H   0  0  0  0  0  0  0  0  0  0  0  0
  1  2  2  0
  2  3  1  0
  2  7  1  0
  3  4  1  0
  3  8  1  0
  3  9  1  0
  4  5  1  0
  4 10  1  0
  4 11  1  0
  5  6  1  0
  5 12  1  0
  5 13  1  0
  6  7  1  0
  6 14  1  0
  6 15  1  0
  7 16  1  0
M  END
> <intraLJ>
0.344     

> <intraEL>
-2.405    

> <intraDihe>
10.947    

> <interLJ>
0.000     

> <interEJ>
0.000     

> <gridLJ>
-2.291    

> <gridEL>
0.000     

> <totalE>
6.594     

> <LGFE>
-2.291  

> <LE>
-0.327  

> <SMILES>
O=C1CCCCN1

> <atom.dprop.GFE>
-0.58 0 -0.27 -0.33 -0.3 -0.33 -0.48 0 0 0 0 0 0 0 0 0

> <atom.prop.CLASS>
GENA NCLA PRPC PRPC PRPC PRPC GEND NCLA NCLA NCLA NCLA NCLA NCLA NCLA NCLA NCLA

$$$$
