81_2
     RDKit          3D

 19 19  0  0  1  0  0  0  0  0999 V2000
   18.8503   16.1415  -22.9227 N   0  0  0  0  0  0  0  0  0  0  0  0
   20.2554   15.7929  -22.5948 C   0  0  0  0  0  0  0  0  0  0  0  0
   20.2799   14.6690  -21.5467 C   0  0  0  0  0  0  0  0  0  0  0  0
   19.6812   15.0464  -20.1954 C   0  0  0  0  0  0  0  0  0  0  0  0
   20.4257   14.1162  -19.2364 C   0  0  0  0  0  0  0  0  0  0  0  0
   21.6335   13.6203  -20.0352 C   0  0  0  0  0  0  0  0  0  0  0  0
   21.6304   14.3740  -21.2387 O   0  0  0  0  0  0  0  0  0  0  0  0
   18.7836   16.7782  -23.7018 H   0  0  0  0  0  0  0  0  0  0  0  0
   18.3771   16.5083  -22.1099 H   0  0  0  0  0  0  0  0  0  0  0  0
   18.3986   15.2535  -23.1367 H   0  0  0  0  0  0  0  0  0  0  0  0
   20.7495   15.4138  -23.4928 H   0  0  0  0  0  0  0  0  0  0  0  0
   20.8138   16.6576  -22.2274 H   0  0  0  0  0  0  0  0  0  0  0  0
   19.7893   13.7740  -21.9356 H   0  0  0  0  0  0  0  0  0  0  0  0
   19.9126   16.0853  -19.9499 H   0  0  0  0  0  0  0  0  0  0  0  0
   18.6038   14.8732  -20.1658 H   0  0  0  0  0  0  0  0  0  0  0  0
   19.7982   13.2688  -18.9527 H   0  0  0  0  0  0  0  0  0  0  0  0
   20.7474   14.6563  -18.3437 H   0  0  0  0  0  0  0  0  0  0  0  0
   21.5139   12.5585  -20.2599 H   0  0  0  0  0  0  0  0  0  0  0  0
   22.5616   13.7741  -19.4803 H   0  0  0  0  0  0  0  0  0  0  0  0
  1  2  1  0
  1  8  1  0
  1  9  1  0
  1 10  1  0
  2  3  1  0
  2 11  1  0
  2 12  1  0
  3  4  1  0
  3  7  1  0
  3 13  1  0
  4  5  1  0
  4 14  1  0
  4 15  1  0
  5  6  1  0
  5 16  1  0
  5 17  1  0
  6  7  1  0
  6 18  1  0
  6 19  1  0
M  CHG  1   1   1
M  END
> <intraLJ>
-0.745    

> <intraEL>
2.669     

> <intraDihe>
7.603     

> <interLJ>
0.000     

> <interEJ>
0.000     

> <gridLJ>
-2.196    

> <gridEL>
0.000     

> <totalE>
7.331     

> <LGFE>
-2.196  

> <LE>
-0.314  

> <SMILES>
[NH3+]CC1CCCO1

> <atom.dprop.GFE>
-0.6 -0.11 -0.24 -0.25 -0.37 -0.24 -0.37 0 0 0 0 0 0 0 0 0 0 0 0

> <atom.prop.CLASS>
MAMN PRPC PRPC PRPC PRPC PRPC GENA NCLA NCLA NCLA NCLA NCLA NCLA NCLA NCLA NCLA NCLA NCLA NCLA

$$$$
