51_1
     RDKit          3D

 12 12  0  0  0  0  0  0  0  0999 V2000
  -28.5904   15.0859   16.5017 O   0  0  0  0  0  0  0  0  0  0  0  0
  -28.2047   14.6427   17.5690 C   0  0  0  0  0  0  0  0  0  0  0  0
  -27.0971   13.6756   17.8316 C   0  0  0  0  0  0  0  0  0  0  0  0
  -27.4732   13.1738   19.2459 C   0  0  0  0  0  0  0  0  0  0  0  0
  -28.1940   14.2894   19.8971 N   0  0  0  0  0  0  0  0  0  0  0  0
  -28.7588   14.9916   18.7264 N   0  0  0  0  0  0  0  0  0  0  0  0
  -26.1698   14.2273   17.8727 H   0  0  0  0  0  0  0  0  0  0  0  0
  -27.1161   12.8715   17.1105 H   0  0  0  0  0  0  0  0  0  0  0  0
  -26.5862   12.8815   19.8113 H   0  0  0  0  0  0  0  0  0  0  0  0
  -28.1480   12.3199   19.1590 H   0  0  0  0  0  0  0  0  0  0  0  0
  -27.4609   14.9079   20.2920 H   0  0  0  0  0  0  0  0  0  0  0  0
  -29.5749   15.6272   18.7554 H   0  0  0  0  0  0  0  0  0  0  0  0
  1  2  2  0
  2  3  1  0
  2  6  1  0
  3  4  1  0
  3  7  1  0
  3  8  1  0
  4  5  1  0
  4  9  1  0
  4 10  1  0
  5  6  1  0
  5 11  1  0
  6 12  1  0
M  END
> <intraLJ>
-0.445    

> <intraEL>
-0.094    

> <intraDihe>
6.248     

> <interLJ>
0.000     

> <interEJ>
0.000     

> <gridLJ>
-2.893    

> <gridEL>
0.000     

> <totalE>
2.816     

> <LGFE>
-2.893  

> <LE>
-0.482  

> <SMILES>
O=C1CCNN1

> <atom.dprop.GFE>
-0.56 -0.19 -0.46 -0.48 -0.6 -0.6 0 0 0 0 0 0

> <atom.prop.CLASS>
GENA GEHC PRPC PRPC GEND GEND NCLA NCLA NCLA NCLA NCLA NCLA

$$$$
