35_1
     RDKit          3D

 10 10  0  0  0  0  0  0  0  0999 V2000
  -19.2373   -0.6103   28.2522 N   0  0  0  0  0  0  0  0  0  0  0  0
  -19.7178    0.5047   27.6457 C   0  0  0  0  0  0  0  0  0  0  0  0
  -20.8294    1.1149   28.0715 N   0  0  0  0  0  0  0  0  0  0  0  0
  -20.9289    2.1023   27.2535 C   0  0  0  0  0  0  0  0  0  0  0  0
  -19.9071    2.0686   26.3922 N   0  0  0  0  0  0  0  0  0  0  0  0
  -19.1007    1.0266   26.6496 N   0  0  0  0  0  0  0  0  0  0  0  0
  -18.2260   -0.6365   28.0967 H   0  0  0  0  0  0  0  0  0  0  0  0
  -19.5118   -0.5804   29.2384 H   0  0  0  0  0  0  0  0  0  0  0  0
  -21.6699    2.8589   27.2088 H   0  0  0  0  0  0  0  0  0  0  0  0
  -19.7524    2.7506   25.6295 H   0  0  0  0  0  0  0  0  0  0  0  0
  1  2  1  0
  1  7  1  0
  1  8  1  0
  2  3  1  0
  2  6  2  0
  3  4  2  0
  4  5  1  0
  4  9  1  0
  5  6  1  0
  5 10  1  0
M  END
> <intraLJ>
0.124     

> <intraEL>
-9.860    

> <intraDihe>
2.848     

> <interLJ>
0.000     

> <interEJ>
0.000     

> <gridLJ>
-2.502    

> <gridEL>
0.000     

> <totalE>
-9.390    

> <LGFE>
-2.502  

> <LE>
-0.417  

> <SMILES>
Nc1nc[nH]n1

> <atom.dprop.GFE>
-0.48 -0.25 -0.8 -0.058 -0.3 -0.61 0 0 0 0

> <atom.prop.CLASS>
GEND GEHC GENA GEHC GEND GENA NCLA NCLA NCLA NCLA

$$$$
