3
     RDKit          3D

  9  9  0  0  0  0  0  0  0  0999 V2000
  -17.3552   -2.5030   26.4971 C   0  0  0  0  0  0  0  0  0  0  0  0
  -18.0207   -3.7164   26.6266 C   0  0  0  0  0  0  0  0  0  0  0  0
  -19.0788   -3.7534   25.8619 N   0  0  0  0  0  0  0  0  0  0  0  0
  -19.0956   -2.5477   25.2338 N   0  0  0  0  0  0  0  0  0  0  0  0
  -18.0549   -1.7689   25.6039 C   0  0  0  0  0  0  0  0  0  0  0  0
  -16.4709   -2.2093   27.0020 H   0  0  0  0  0  0  0  0  0  0  0  0
  -17.7277   -4.5193   27.2538 H   0  0  0  0  0  0  0  0  0  0  0  0
  -19.8301   -2.2788   24.5523 H   0  0  0  0  0  0  0  0  0  0  0  0
  -17.9044   -0.7950   25.2181 H   0  0  0  0  0  0  0  0  0  0  0  0
  1  2  1  0
  1  5  2  0
  1  6  1  0
  2  3  2  0
  2  7  1  0
  3  4  1  0
  4  5  1  0
  4  8  1  0
  5  9  1  0
M  END
> <intraLJ>
-0.423    

> <intraEL>
0.053     

> <intraDihe>
0.000     

> <interLJ>
0.000     

> <interEJ>
0.000     

> <gridLJ>
-2.318    

> <gridEL>
0.000     

> <totalE>
-2.687    

> <LGFE>
-2.318  

> <LE>
-0.464  

> <SMILES>
c1cn[nH]c1

> <atom.dprop.GFE>
-0.18 -0.17 -0.78 -1.1 -0.13 0 0 0 0

> <atom.prop.CLASS>
GEHC GEHC GENA GEND GEHC NCLA NCLA NCLA NCLA

$$$$
