29_1
     RDKit          3D

 12 12  0  0  0  0  0  0  0  0999 V2000
   21.9794   12.6012   -2.5927 N   0  0  0  0  0  0  0  0  0  0  0  0
   21.2498   13.3945   -3.4691 C   0  0  0  0  0  0  0  0  0  0  0  0
   19.9243   13.2601   -3.7228 C   0  0  0  0  0  0  0  0  0  0  0  0
   19.4225   14.4524   -4.8530 S   0  0  0  0  0  0  0  0  0  0  0  0
   21.0608   15.0027   -4.8606 C   0  0  0  0  0  0  0  0  0  0  0  0
   21.4348   16.0682   -5.6374 N   0  0  0  0  0  0  0  0  0  0  0  0
   21.9134   14.3859   -4.1017 N   0  0  0  0  0  0  0  0  0  0  0  0
   22.8591   13.0968   -2.3956 H   0  0  0  0  0  0  0  0  0  0  0  0
   21.4432   12.4262   -1.7357 H   0  0  0  0  0  0  0  0  0  0  0  0
   19.2617   12.5424   -3.3195 H   0  0  0  0  0  0  0  0  0  0  0  0
   22.3037   16.4887   -5.2873 H   0  0  0  0  0  0  0  0  0  0  0  0
   20.6682   16.7258   -5.8204 H   0  0  0  0  0  0  0  0  0  0  0  0
  1  2  1  0
  1  8  1  0
  1  9  1  0
  2  3  2  0
  2  7  1  0
  3  4  1  0
  3 10  1  0
  4  5  1  0
  5  6  1  0
  5  7  2  0
  6 11  1  0
  6 12  1  0
M  END
> <intraLJ>
-0.273    

> <intraEL>
-13.389   

> <intraDihe>
3.347     

> <interLJ>
0.000     

> <interEJ>
0.000     

> <gridLJ>
-2.789    

> <gridEL>
0.000     

> <totalE>
-13.105   

> <LGFE>
-2.789  

> <LE>
-0.398  

> <SMILES>
Nc1csc(N)n1

> <atom.dprop.GFE>
-0.47 -0.086 -0.079 -0.67 -0.23 -0.21 -1 0 0 0 0 0

> <atom.prop.CLASS>
GEND GEHC GEHC PRPC GEHC GEND GENA NCLA NCLA NCLA NCLA NCLA

$$$$
