68_2
     RDKit          3D

 18 17  0  0  1  0  0  0  0  0999 V2000
    3.0180   17.4379  -16.2208 C   0  0  0  0  0  0  0  0  0  0  0  0
    3.9449   18.4789  -15.6010 C   0  0  0  0  0  0  0  0  0  0  0  0
    4.6914   19.1564  -16.6708 N   0  0  0  0  0  0  0  0  0  0  0  0
    4.8831   17.8235  -14.5752 C   0  0  0  0  0  0  0  0  0  0  0  0
    5.6527   18.8605  -13.7716 C   0  0  0  0  0  0  0  0  0  0  0  0
    5.5388   20.0510  -14.0213 O   0  0  0  0  0  0  0  0  0  0  0  0
    6.4843   18.4558  -12.8346 N   0  0  0  0  0  0  0  0  0  0  0  0
    2.4307   16.9540  -15.4392 H   0  0  0  0  0  0  0  0  0  0  0  0
    3.5919   16.6755  -16.7502 H   0  0  0  0  0  0  0  0  0  0  0  0
    2.3277   17.9168  -16.9166 H   0  0  0  0  0  0  0  0  0  0  0  0
    3.3331   19.2137  -15.0662 H   0  0  0  0  0  0  0  0  0  0  0  0
    5.2575   18.5049  -17.1903 H   0  0  0  0  0  0  0  0  0  0  0  0
    5.3095   19.8285  -16.2059 H   0  0  0  0  0  0  0  0  0  0  0  0
    4.0673   19.6535  -17.2874 H   0  0  0  0  0  0  0  0  0  0  0  0
    5.5952   17.1674  -15.0739 H   0  0  0  0  0  0  0  0  0  0  0  0
    4.2891   17.2262  -13.8829 H   0  0  0  0  0  0  0  0  0  0  0  0
    6.9900   19.1690  -12.3301 H   0  0  0  0  0  0  0  0  0  0  0  0
    6.6129   17.4821  -12.6156 H   0  0  0  0  0  0  0  0  0  0  0  0
  1  2  1  0
  1  8  1  0
  1  9  1  0
  1 10  1  0
  2  3  1  0
  2  4  1  0
  2 11  1  0
  3 12  1  0
  3 13  1  0
  3 14  1  0
  4  5  1  0
  4 15  1  0
  4 16  1  0
  5  6  2  0
  5  7  1  0
  7 17  1  0
  7 18  1  0
M  CHG  1   3   1
M  END
> <intraLJ>
2.024     

> <intraEL>
-9.276    

> <intraDihe>
0.178     

> <interLJ>
0.000     

> <interEJ>
0.000     

> <gridLJ>
-2.194    

> <gridEL>
0.000     

> <totalE>
-9.268    

> <LGFE>
-2.194  

> <LE>
-0.313  

> <SMILES>
CC([NH3+])CC(N)=O

> <atom.dprop.GFE>
-0.17 -0.22 -0.99 -0.2 0 -0.25 -0.37 0 0 0 0 0 0 0 0 0 0 0

> <atom.prop.CLASS>
PRPC PRPC MAMN PRPC NCLA GENA GEND NCLA NCLA NCLA NCLA NCLA NCLA NCLA NCLA NCLA NCLA NCLA

$$$$
