2_2
     RDKit          3D

 16 16  0  0  0  0  0  0  0  0999 V2000
  -15.7684  -21.6657   13.9672 C   0  0  0  0  0  0  0  0  0  0  0  0
  -16.6769  -22.9102   13.9282 C   0  0  0  0  0  0  0  0  0  0  0  0
  -16.4585  -23.6396   12.7210 O   0  0  0  0  0  0  0  0  0  0  0  0
  -16.6777  -22.8783   11.5330 C   0  0  0  0  0  0  0  0  0  0  0  0
  -15.7714  -21.6316   11.5271 C   0  0  0  0  0  0  0  0  0  0  0  0
  -15.9625  -20.8081   12.7596 N   0  0  0  0  0  0  0  0  0  0  0  0
  -14.7339  -22.0180   14.0052 H   0  0  0  0  0  0  0  0  0  0  0  0
  -15.9703  -21.1021   14.8814 H   0  0  0  0  0  0  0  0  0  0  0  0
  -17.7244  -22.6091   13.9990 H   0  0  0  0  0  0  0  0  0  0  0  0
  -16.4458  -23.5516   14.7813 H   0  0  0  0  0  0  0  0  0  0  0  0
  -17.7245  -22.5781   11.4697 H   0  0  0  0  0  0  0  0  0  0  0  0
  -16.4444  -23.4969   10.6640 H   0  0  0  0  0  0  0  0  0  0  0  0
  -15.9778  -21.0428   10.6303 H   0  0  0  0  0  0  0  0  0  0  0  0
  -14.7364  -21.9810   11.4751 H   0  0  0  0  0  0  0  0  0  0  0  0
  -15.3135  -20.0310   12.7691 H   0  0  0  0  0  0  0  0  0  0  0  0
  -16.9070  -20.4437   12.7662 H   0  0  0  0  0  0  0  0  0  0  0  0
  1  2  1  0
  1  6  1  0
  1  7  1  0
  1  8  1  0
  2  3  1  0
  2  9  1  0
  2 10  1  0
  3  4  1  0
  4  5  1  0
  4 11  1  0
  4 12  1  0
  5  6  1  0
  5 13  1  0
  5 14  1  0
  6 15  1  0
  6 16  1  0
M  CHG  1   6   1
M  END
> <intraLJ>
0.208     

> <intraEL>
4.487     

> <intraDihe>
1.850     

> <interLJ>
0.000     

> <interEJ>
0.000     

> <gridLJ>
-2.663    

> <gridEL>
0.000     

> <totalE>
3.883     

> <LGFE>
-2.663  

> <LE>
-0.444  

> <SMILES>
C1COCC[NH2+]1

> <atom.dprop.GFE>
-0.069 -0.11 -0.25 -0.12 -0.12 -2 0 0 0 0 0 0 0 0 0 0

> <atom.prop.CLASS>
PRPC PRPC GENA PRPC PRPC MAMN NCLA NCLA NCLA NCLA NCLA NCLA NCLA NCLA NCLA NCLA

$$$$
