26_1
     RDKit          3D

 13 13  0  0  0  0  0  0  0  0999 V2000
   12.5970    4.5914  -44.5151 O   0  0  0  0  0  0  0  0  0  0  0  0
   12.4863    5.9909  -44.2153 C   0  0  0  0  0  0  0  0  0  0  0  0
   13.8913    6.5393  -44.4327 C   0  0  0  0  0  0  0  0  0  0  0  0
   14.2741    7.3850  -45.4687 C   0  0  0  0  0  0  0  0  0  0  0  0
   15.5918    7.6363  -45.3062 C   0  0  0  0  0  0  0  0  0  0  0  0
   15.9595    6.9530  -44.2032 N   0  0  0  0  0  0  0  0  0  0  0  0
   14.9182    6.2718  -43.6562 N   0  0  0  0  0  0  0  0  0  0  0  0
   13.5412    4.4642  -44.7610 H   0  0  0  0  0  0  0  0  0  0  0  0
   12.2090    6.1198  -43.1784 H   0  0  0  0  0  0  0  0  0  0  0  0
   11.8076    6.4603  -44.9147 H   0  0  0  0  0  0  0  0  0  0  0  0
   13.6548    7.7627  -46.2414 H   0  0  0  0  0  0  0  0  0  0  0  0
   16.2720    8.2252  -45.8655 H   0  0  0  0  0  0  0  0  0  0  0  0
   16.9170    6.9346  -43.8026 H   0  0  0  0  0  0  0  0  0  0  0  0
  1  2  1  0
  1  8  1  0
  2  3  1  0
  2  9  1  0
  2 10  1  0
  3  4  1  0
  3  7  2  0
  4  5  2  0
  4 11  1  0
  5  6  1  0
  5 12  1  0
  6  7  1  0
  6 13  1  0
M  END
> <intraLJ>
0.272     

> <intraEL>
0.191     

> <intraDihe>
6.130     

> <interLJ>
0.000     

> <interEJ>
0.000     

> <gridLJ>
-3.008    

> <gridEL>
0.000     

> <totalE>
3.585     

> <LGFE>
-3.008  

> <LE>
-0.430  

> <SMILES>
OCc1cc[nH]n1

> <atom.dprop.GFE>
-0.73 -0.25 -0.16 -0.13 -0.14 -0.9 -0.7 0 0 0 0 0 0

> <atom.prop.CLASS>
MEOO PRPC GEHC GEHC GEHC GEND GENA NCLA NCLA NCLA NCLA NCLA NCLA

$$$$
