68_2
     RDKit          3D

 18 17  0  0  1  0  0  0  0  0999 V2000
  -36.9081   -1.8838   11.6540 C   0  0  0  0  0  0  0  0  0  0  0  0
  -36.2220   -1.4062   10.3780 C   0  0  0  0  0  0  0  0  0  0  0  0
  -34.7863   -1.2312   10.6402 N   0  0  0  0  0  0  0  0  0  0  0  0
  -36.8726   -0.1105    9.8681 C   0  0  0  0  0  0  0  0  0  0  0  0
  -38.3262   -0.3261    9.4756 C   0  0  0  0  0  0  0  0  0  0  0  0
  -38.6257   -1.1532    8.6277 O   0  0  0  0  0  0  0  0  0  0  0  0
  -39.2559    0.4270   10.0253 N   0  0  0  0  0  0  0  0  0  0  0  0
  -37.9684   -2.0534   11.4621 H   0  0  0  0  0  0  0  0  0  0  0  0
  -36.8104   -1.1405   12.4470 H   0  0  0  0  0  0  0  0  0  0  0  0
  -36.4687   -2.8252   11.9867 H   0  0  0  0  0  0  0  0  0  0  0  0
  -36.3575   -2.1700    9.6044 H   0  0  0  0  0  0  0  0  0  0  0  0
  -34.6272   -0.5411   11.3566 H   0  0  0  0  0  0  0  0  0  0  0  0
  -34.3753   -0.8939    9.7642 H   0  0  0  0  0  0  0  0  0  0  0  0
  -34.3557   -2.1079   10.8908 H   0  0  0  0  0  0  0  0  0  0  0  0
  -36.3303    0.2753    9.0059 H   0  0  0  0  0  0  0  0  0  0  0  0
  -36.8396    0.6380   10.6603 H   0  0  0  0  0  0  0  0  0  0  0  0
  -40.2085    0.2678    9.7320 H   0  0  0  0  0  0  0  0  0  0  0  0
  -39.0403    1.1277   10.7146 H   0  0  0  0  0  0  0  0  0  0  0  0
  1  2  1  0
  1  8  1  0
  1  9  1  0
  1 10  1  0
  2  3  1  0
  2  4  1  0
  2 11  1  0
  3 12  1  0
  3 13  1  0
  3 14  1  0
  4  5  1  0
  4 15  1  0
  4 16  1  0
  5  6  2  0
  5  7  1  0
  7 17  1  0
  7 18  1  0
M  CHG  1   3   1
M  END
> <intraLJ>
1.102     

> <intraEL>
-7.824    

> <intraDihe>
0.097     

> <interLJ>
0.000     

> <interEJ>
0.000     

> <gridLJ>
-2.115    

> <gridEL>
0.000     

> <totalE>
-8.740    

> <LGFE>
-2.115  

> <LE>
-0.302  

> <SMILES>
CC([NH3+])CC(N)=O

> <atom.dprop.GFE>
-0.2 -0.15 -1.8 -0.014 0 0.028 -0.014 0 0 0 0 0 0 0 0 0 0 0

> <atom.prop.CLASS>
PRPC PRPC MAMN PRPC NCLA GENA GEND NCLA NCLA NCLA NCLA NCLA NCLA NCLA NCLA NCLA NCLA NCLA

$$$$
