15_1
     RDKit          3D

 13 13  0  0  0  0  0  0  0  0999 V2000
  -15.1929    8.8597   -1.6503 N   0  0  0  0  0  0  0  0  0  0  0  0
  -15.4916    7.6671   -2.2233 C   0  0  0  0  0  0  0  0  0  0  0  0
  -15.2145    7.4000   -3.5647 C   0  0  0  0  0  0  0  0  0  0  0  0
  -15.5594    6.1612   -4.0759 C   0  0  0  0  0  0  0  0  0  0  0  0
  -16.1644    5.2489   -3.2169 C   0  0  0  0  0  0  0  0  0  0  0  0
  -16.4006    5.6045   -1.8900 C   0  0  0  0  0  0  0  0  0  0  0  0
  -16.0680    6.8013   -1.4040 N   0  0  0  0  0  0  0  0  0  0  0  0
  -15.6716    8.9563   -0.7461 H   0  0  0  0  0  0  0  0  0  0  0  0
  -15.2684    9.6674   -2.2769 H   0  0  0  0  0  0  0  0  0  0  0  0
  -14.7469    8.1328   -4.1666 H   0  0  0  0  0  0  0  0  0  0  0  0
  -15.3675    5.9129   -5.0890 H   0  0  0  0  0  0  0  0  0  0  0  0
  -16.4436    4.2886   -3.5656 H   0  0  0  0  0  0  0  0  0  0  0  0
  -16.8600    4.9130   -1.2293 H   0  0  0  0  0  0  0  0  0  0  0  0
  1  2  1  0
  1  8  1  0
  1  9  1  0
  2  3  2  0
  2  7  1  0
  3  4  1  0
  3 10  1  0
  4  5  2  0
  4 11  1  0
  5  6  1  0
  5 12  1  0
  6  7  2  0
  6 13  1  0
M  END
> <intraLJ>
13.521    

> <intraEL>
-12.491   

> <intraDihe>
2.164     

> <interLJ>
0.000     

> <interEJ>
0.000     

> <gridLJ>
-4.495    

> <gridEL>
0.000     

> <totalE>
-1.301    

> <LGFE>
-4.495  

> <LE>
-0.642  

> <SMILES>
Nc1ccccn1

> <atom.dprop.GFE>
-1.4 -0.48 -0.23 -0.11 -0.19 -0.083 -2 0 0 0 0 0 0

> <atom.prop.CLASS>
GEND GEHC BENC BENC BENC GEHC GENA NCLA NCLA NCLA NCLA NCLA NCLA

$$$$
