36_1
     RDKit          3D

 13 13  0  0  0  0  0  0  0  0999 V2000
  -16.0712    9.9125    0.2236 N   0  0  0  0  0  0  0  0  0  0  0  0
  -15.2538    8.7094    0.3307 C   0  0  0  0  0  0  0  0  0  0  0  0
  -15.7920    7.7801   -0.7406 C   0  0  0  0  0  0  0  0  0  0  0  0
  -15.1935    7.4702   -1.9030 C   0  0  0  0  0  0  0  0  0  0  0  0
  -15.9788    6.6353   -2.5620 O   0  0  0  0  0  0  0  0  0  0  0  0
  -17.0479    6.4593   -1.7679 C   0  0  0  0  0  0  0  0  0  0  0  0
  -16.9855    7.1231   -0.6678 N   0  0  0  0  0  0  0  0  0  0  0  0
  -17.0307    9.5994    0.3201 H   0  0  0  0  0  0  0  0  0  0  0  0
  -15.9834   10.2650   -0.7186 H   0  0  0  0  0  0  0  0  0  0  0  0
  -15.4013    8.2493    1.2992 H   0  0  0  0  0  0  0  0  0  0  0  0
  -14.2166    8.9446    0.1255 H   0  0  0  0  0  0  0  0  0  0  0  0
  -14.2666    7.7863   -2.3074 H   0  0  0  0  0  0  0  0  0  0  0  0
  -17.8304    5.8181   -2.0904 H   0  0  0  0  0  0  0  0  0  0  0  0
  1  2  1  0
  1  8  1  0
  1  9  1  0
  2  3  1  0
  2 10  1  0
  2 11  1  0
  3  4  2  0
  3  7  1  0
  4  5  1  0
  4 12  1  0
  5  6  1  0
  6  7  2  0
  6 13  1  0
M  END
> <intraLJ>
0.932     

> <intraEL>
3.158     

> <intraDihe>
2.707     

> <interLJ>
0.000     

> <interEJ>
0.000     

> <gridLJ>
-5.668    

> <gridEL>
0.000     

> <totalE>
1.129     

> <LGFE>
-5.668  

> <LE>
-0.810  

> <SMILES>
NCc1cocn1

> <atom.dprop.GFE>
-0.42 -0.3 -0.51 -0.48 -1.6 -0.47 -1.9 0 0 0 0 0 0

> <atom.prop.CLASS>
GEND PRPC GEHC GEHC GENA GEHC GENA NCLA NCLA NCLA NCLA NCLA NCLA

$$$$
