29_1
     RDKit          3D

 12 12  0  0  0  0  0  0  0  0999 V2000
   20.7160    4.0981  -49.1359 N   0  0  0  0  0  0  0  0  0  0  0  0
   19.3288    4.0248  -49.1392 C   0  0  0  0  0  0  0  0  0  0  0  0
   18.6065    2.9353  -49.5006 C   0  0  0  0  0  0  0  0  0  0  0  0
   16.9288    3.2687  -49.3429 S   0  0  0  0  0  0  0  0  0  0  0  0
   17.3865    4.8465  -48.8063 C   0  0  0  0  0  0  0  0  0  0  0  0
   16.4337    5.7678  -48.4569 N   0  0  0  0  0  0  0  0  0  0  0  0
   18.6525    5.1210  -48.7336 N   0  0  0  0  0  0  0  0  0  0  0  0
   20.9754    4.9143  -48.5660 H   0  0  0  0  0  0  0  0  0  0  0  0
   21.1203    3.2320  -48.7629 H   0  0  0  0  0  0  0  0  0  0  0  0
   18.9731    2.0049  -49.8422 H   0  0  0  0  0  0  0  0  0  0  0  0
   16.8319    6.4924  -47.8479 H   0  0  0  0  0  0  0  0  0  0  0  0
   15.5605    5.3424  -48.1249 H   0  0  0  0  0  0  0  0  0  0  0  0
  1  2  1  0
  1  8  1  0
  1  9  1  0
  2  3  2  0
  2  7  1  0
  3  4  1  0
  3 10  1  0
  4  5  1  0
  5  6  1  0
  5  7  2  0
  6 11  1  0
  6 12  1  0
M  END
> <intraLJ>
-0.273    

> <intraEL>
-13.389   

> <intraDihe>
3.347     

> <interLJ>
0.000     

> <interEJ>
0.000     

> <gridLJ>
-2.471    

> <gridEL>
0.000     

> <totalE>
-12.787   

> <LGFE>
-2.471  

> <LE>
-0.353  

> <SMILES>
Nc1csc(N)n1

> <atom.dprop.GFE>
-0.62 -0.22 -0.15 -0.33 -0.18 -0.39 -0.58 0 0 0 0 0

> <atom.prop.CLASS>
GEND GEHC GEHC PRPC GEHC GEND GENA NCLA NCLA NCLA NCLA NCLA

$$$$
