73
     RDKit          3D

 13 13  0  0  0  0  0  0  0  0999 V2000
    8.8875   -4.7956  -15.8384 O   0  0  0  0  0  0  0  0  0  0  0  0
    9.6927   -5.2157  -15.0229 C   0  0  0  0  0  0  0  0  0  0  0  0
    9.3559   -5.6731  -13.6225 C   0  0  0  0  0  0  0  0  0  0  0  0
   10.6066   -6.4702  -13.2068 C   0  0  0  0  0  0  0  0  0  0  0  0
   11.7019   -5.8453  -14.0826 C   0  0  0  0  0  0  0  0  0  0  0  0
   10.9780   -5.3901  -15.2510 N   0  0  0  0  0  0  0  0  0  0  0  0
    8.4647   -6.2983  -13.6246 H   0  0  0  0  0  0  0  0  0  0  0  0
    9.2280   -4.7980  -12.9872 H   0  0  0  0  0  0  0  0  0  0  0  0
   10.4799   -7.5194  -13.4801 H   0  0  0  0  0  0  0  0  0  0  0  0
   10.8261   -6.3683  -12.1426 H   0  0  0  0  0  0  0  0  0  0  0  0
   12.4637   -6.5847  -14.3402 H   0  0  0  0  0  0  0  0  0  0  0  0
   12.1559   -4.9932  -13.5697 H   0  0  0  0  0  0  0  0  0  0  0  0
   11.3973   -5.1462  -16.1337 H   0  0  0  0  0  0  0  0  0  0  0  0
  1  2  2  0
  2  3  1  0
  2  6  1  0
  3  4  1  0
  3  7  1  0
  3  8  1  0
  4  5  1  0
  4  9  1  0
  4 10  1  0
  5  6  1  0
  5 11  1  0
  5 12  1  0
  6 13  1  0
M  END
> <intraLJ>
-0.403    

> <intraEL>
-2.564    

> <intraDihe>
6.839     

> <interLJ>
0.000     

> <interEJ>
0.000     

> <gridLJ>
-2.500    

> <gridEL>
0.000     

> <totalE>
1.371     

> <LGFE>
-2.500  

> <LE>
-0.417  

> <SMILES>
O=C1CCCN1

> <atom.dprop.GFE>
-0.9 -0.031 -0.29 -0.27 -0.3 -0.7 0 0 0 0 0 0 0

> <atom.prop.CLASS>
GENA GEHC PRPC PRPC PRPC GEND NCLA NCLA NCLA NCLA NCLA NCLA NCLA

$$$$
