67
     RDKit          3D

 15 15  0  0  1  0  0  0  0  0999 V2000
  -23.5266   -8.9249    5.0799 O   0  0  0  0  0  0  0  0  0  0  0  0
  -23.0793   -8.9108    6.4368 C   0  0  0  0  0  0  0  0  0  0  0  0
  -23.5510  -10.1178    7.2431 C   0  0  0  0  0  0  0  0  0  0  0  0
  -22.6624  -10.1655    8.3439 O   0  0  0  0  0  0  0  0  0  0  0  0
  -21.3668   -9.8516    7.8473 C   0  0  0  0  0  0  0  0  0  0  0  0
  -21.5526   -9.0543    6.5485 C   0  0  0  0  0  0  0  0  0  0  0  0
  -21.0541   -9.7829    5.4390 O   0  0  0  0  0  0  0  0  0  0  0  0
  -24.4758   -8.7642    5.0553 H   0  0  0  0  0  0  0  0  0  0  0  0
  -23.3922   -7.9951    6.9414 H   0  0  0  0  0  0  0  0  0  0  0  0
  -23.4519  -11.0247    6.6438 H   0  0  0  0  0  0  0  0  0  0  0  0
  -24.5815   -9.9934    7.5780 H   0  0  0  0  0  0  0  0  0  0  0  0
  -20.8155   -9.2631    8.5816 H   0  0  0  0  0  0  0  0  0  0  0  0
  -20.8197  -10.7718    7.6346 H   0  0  0  0  0  0  0  0  0  0  0  0
  -21.0778   -8.0746    6.6160 H   0  0  0  0  0  0  0  0  0  0  0  0
  -21.7203   -9.6575    4.7458 H   0  0  0  0  0  0  0  0  0  0  0  0
  1  2  1  0
  1  8  1  0
  2  3  1  0
  2  6  1  0
  2  9  1  0
  3  4  1  0
  3 10  1  0
  3 11  1  0
  4  5  1  0
  5  6  1  0
  5 12  1  0
  5 13  1  0
  6  7  1  0
  6 14  1  0
  7 15  1  0
M  END
> <intraLJ>
4.089     

> <intraEL>
1.909     

> <intraDihe>
14.436    

> <interLJ>
0.000     

> <interEJ>
0.000     

> <gridLJ>
-2.474    

> <gridEL>
0.000     

> <totalE>
17.960    

> <LGFE>
-2.474  

> <LE>
-0.353  

> <SMILES>
OC1COCC1O

> <atom.dprop.GFE>
-0.027 -0.53 -0.46 -0.24 -0.43 -0.44 -0.36 0 0 0 0 0 0 0 0

> <atom.prop.CLASS>
MEOO PRPC PRPC GENA PRPC PRPC MEOO NCLA NCLA NCLA NCLA NCLA NCLA NCLA NCLA

$$$$
