35_2
     RDKit          3D

 10 10  0  0  0  0  0  0  0  0999 V2000
   19.1819   -6.0824  -28.1924 N   0  0  0  0  0  0  0  0  0  0  0  0
   20.2136   -5.1832  -27.9964 C   0  0  0  0  0  0  0  0  0  0  0  0
   20.9757   -4.7377  -28.9863 N   0  0  0  0  0  0  0  0  0  0  0  0
   21.8552   -3.8966  -28.4365 C   0  0  0  0  0  0  0  0  0  0  0  0
   21.6482   -3.8294  -27.1640 N   0  0  0  0  0  0  0  0  0  0  0  0
   20.5837   -4.6670  -26.8700 N   0  0  0  0  0  0  0  0  0  0  0  0
   18.5734   -6.1376  -27.3613 H   0  0  0  0  0  0  0  0  0  0  0  0
   18.6681   -5.9846  -29.0773 H   0  0  0  0  0  0  0  0  0  0  0  0
   20.8992   -5.0128  -29.9732 H   0  0  0  0  0  0  0  0  0  0  0  0
   22.5910   -3.3939  -29.0103 H   0  0  0  0  0  0  0  0  0  0  0  0
  1  2  1  0
  1  7  1  0
  1  8  1  0
  2  3  1  0
  2  6  2  0
  3  4  1  0
  3  9  1  0
  4  5  2  0
  4 10  1  0
  5  6  1  0
M  END
> <intraLJ>
-0.237    

> <intraEL>
-7.007    

> <intraDihe>
2.733     

> <interLJ>
0.000     

> <interEJ>
0.000     

> <gridLJ>
-3.720    

> <gridEL>
0.000     

> <totalE>
-8.232    

> <LGFE>
-3.720  

> <LE>
-0.620  

> <SMILES>
Nc1nnc[nH]1

> <atom.dprop.GFE>
-0.54 -0.044 -0.47 -0.26 -1.5 -0.93 0 0 0 0

> <atom.prop.CLASS>
GEND GEHC GEND GEHC GENA GENA NCLA NCLA NCLA NCLA

$$$$
