57_1
     RDKit          3D

 15 15  0  0  0  0  0  0  0  0999 V2000
  -23.1148   -9.4905    4.8400 O   0  0  0  0  0  0  0  0  0  0  0  0
  -22.2645   -9.1633    5.7720 C   0  0  0  0  0  0  0  0  0  0  0  0
  -21.1773   -8.8676    5.3570 O   0  0  0  0  0  0  0  0  0  0  0  0
  -22.7011   -9.1812    7.2262 C   0  0  0  0  0  0  0  0  0  0  0  0
  -21.5128   -9.1756    8.2295 C   0  0  0  0  0  0  0  0  0  0  0  0
  -22.3459  -10.1861    9.0729 C   0  0  0  0  0  0  0  0  0  0  0  0
  -23.0570  -10.6010    7.7500 C   0  0  0  0  0  0  0  0  0  0  0  0
  -22.5738   -9.3867    4.0553 H   0  0  0  0  0  0  0  0  0  0  0  0
  -23.4565   -8.4327    7.4340 H   0  0  0  0  0  0  0  0  0  0  0  0
  -21.3495   -8.2229    8.7140 H   0  0  0  0  0  0  0  0  0  0  0  0
  -20.6087   -9.6179    7.8311 H   0  0  0  0  0  0  0  0  0  0  0  0
  -23.0146   -9.6953    9.7685 H   0  0  0  0  0  0  0  0  0  0  0  0
  -21.7579  -10.9737    9.5239 H   0  0  0  0  0  0  0  0  0  0  0  0
  -22.5358  -11.3975    7.2344 H   0  0  0  0  0  0  0  0  0  0  0  0
  -24.1188  -10.7788    7.8567 H   0  0  0  0  0  0  0  0  0  0  0  0
  1  2  1  0
  1  8  1  0
  2  3  2  0
  2  4  1  0
  4  5  1  0
  4  7  1  0
  4  9  1  0
  5  6  1  0
  5 10  1  0
  5 11  1  0
  6  7  1  0
  6 12  1  0
  6 13  1  0
  7 14  1  0
  7 15  1  0
M  END
> <intraLJ>
-0.769    

> <intraEL>
-1.742    

> <intraDihe>
17.650    

> <interLJ>
0.000     

> <interEJ>
0.000     

> <gridLJ>
-2.234    

> <gridEL>
0.000     

> <totalE>
12.905    

> <LGFE>
-2.234  

> <LE>
-0.319  

> <SMILES>
O=C(O)C1CCC1

> <atom.dprop.GFE>
-0.027 0 -0.4 -0.53 -0.43 -0.38 -0.47 0 0 0 0 0 0 0 0

> <atom.prop.CLASS>
MEOO NCLA GENA PRPC PRPC PRPC PRPC NCLA NCLA NCLA NCLA NCLA NCLA NCLA NCLA

$$$$
