21_1
     RDKit          3D

 17 16  0  0  0  0  0  0  0  0999 V2000
  -21.1176    8.2256   11.8754 C   0  0  0  0  0  0  0  0  0  0  0  0
  -22.6155    8.5498   11.6997 C   0  0  0  0  0  0  0  0  0  0  0  0
  -22.7412   10.0553   11.3671 C   0  0  0  0  0  0  0  0  0  0  0  0
  -23.3415    8.2256   13.0059 C   0  0  0  0  0  0  0  0  0  0  0  0
  -24.3017    7.3999   13.1084 N   0  0  0  0  0  0  0  0  0  0  0  0
  -24.8344    7.1370   14.3484 O   0  0  0  0  0  0  0  0  0  0  0  0
  -22.9441    8.9405   14.1185 N   0  0  0  0  0  0  0  0  0  0  0  0
  -20.5927    8.4685   10.9509 H   0  0  0  0  0  0  0  0  0  0  0  0
  -21.0124    7.1630   12.0962 H   0  0  0  0  0  0  0  0  0  0  0  0
  -20.7219    8.8190   12.7031 H   0  0  0  0  0  0  0  0  0  0  0  0
  -23.0350    7.9675   10.8904 H   0  0  0  0  0  0  0  0  0  0  0  0
  -22.2766   10.6436   12.1609 H   0  0  0  0  0  0  0  0  0  0  0  0
  -23.8011   10.3021   11.2951 H   0  0  0  0  0  0  0  0  0  0  0  0
  -22.2460   10.2484   10.4151 H   0  0  0  0  0  0  0  0  0  0  0  0
  -24.1456    7.3882   14.9996 H   0  0  0  0  0  0  0  0  0  0  0  0
  -23.7544    9.2013   14.6948 H   0  0  0  0  0  0  0  0  0  0  0  0
  -22.3362    9.7359   13.8890 H   0  0  0  0  0  0  0  0  0  0  0  0
  1  2  1  0
  1  8  1  0
  1  9  1  0
  1 10  1  0
  2  3  1  0
  2  4  1  0
  2 11  1  0
  3 12  1  0
  3 13  1  0
  3 14  1  0
  4  5  2  0
  4  7  1  0
  5  6  1  0
  6 15  1  0
  7 16  1  0
  7 17  1  0
M  END
> <intraLJ>
7.547     

> <intraEL>
0.137     

> <intraDihe>
5.064     

> <interLJ>
0.000     

> <interEJ>
0.000     

> <gridLJ>
-3.298    

> <gridEL>
0.000     

> <totalE>
9.450     

> <LGFE>
-3.298  

> <LE>
-0.471  

> <SMILES>
CC(C)C(N)=NO

> <atom.dprop.GFE>
-0.24 -0.51 -0.36 0 -1.1 -0.63 -0.47 0 0 0 0 0 0 0 0 0 0

> <atom.prop.CLASS>
PRPC PRPC PRPC NCLA GENA MEOO GEND NCLA NCLA NCLA NCLA NCLA NCLA NCLA NCLA NCLA NCLA

$$$$
