60_2
     RDKit          3D

 14 14  0  0  0  0  0  0  0  0999 V2000
  -12.4543  -14.0469    2.6621 N   0  0  0  0  0  0  0  0  0  0  0  0
  -13.3920  -14.9085    2.2374 C   0  0  0  0  0  0  0  0  0  0  0  0
  -13.0848  -15.8364    1.2348 C   0  0  0  0  0  0  0  0  0  0  0  0
  -14.0595  -16.7128    0.8106 C   0  0  0  0  0  0  0  0  0  0  0  0
  -15.3016  -16.6618    1.3721 N   0  0  0  0  0  0  0  0  0  0  0  0
  -15.6250  -15.7671    2.3514 C   0  0  0  0  0  0  0  0  0  0  0  0
  -14.6743  -14.8763    2.7988 C   0  0  0  0  0  0  0  0  0  0  0  0
  -12.6531  -13.3504    3.4009 H   0  0  0  0  0  0  0  0  0  0  0  0
  -11.4980  -14.0472    2.2642 H   0  0  0  0  0  0  0  0  0  0  0  0
  -12.1118  -15.8545    0.8147 H   0  0  0  0  0  0  0  0  0  0  0  0
  -13.9241  -17.4518    0.0570 H   0  0  0  0  0  0  0  0  0  0  0  0
  -16.0271  -17.3277    1.0442 H   0  0  0  0  0  0  0  0  0  0  0  0
  -16.6236  -15.8217    2.7133 H   0  0  0  0  0  0  0  0  0  0  0  0
  -14.8997  -14.1716    3.5573 H   0  0  0  0  0  0  0  0  0  0  0  0
  1  2  1  0
  1  8  1  0
  1  9  1  0
  2  3  2  0
  2  7  1  0
  3  4  1  0
  3 10  1  0
  4  5  2  0
  4 11  1  0
  5  6  1  0
  5 12  1  0
  6  7  2  0
  6 13  1  0
  7 14  1  0
M  CHG  1   5   1
M  END
> <intraLJ>
8.489     

> <intraEL>
2.031     

> <intraDihe>
0.000     

> <interLJ>
0.000     

> <interEJ>
0.000     

> <gridLJ>
-2.279    

> <gridEL>
0.000     

> <totalE>
8.241     

> <LGFE>
-2.279  

> <LE>
-0.326  

> <SMILES>
Nc1cc[nH+]cc1

> <atom.dprop.GFE>
-0.59 -0.02 -0.02 0.027 -1.7 0.039 0.0045 0 0 0 0 0 0 0

> <atom.prop.CLASS>
GEND BENC BENC BENC MAMN BENC BENC NCLA NCLA NCLA NCLA NCLA NCLA NCLA

$$$$
