46_1
     RDKit          3D

 14 14  0  0  0  0  0  0  0  0999 V2000
    1.3373   -0.8566  -37.1246 C   0  0  0  0  0  0  0  0  0  0  0  0
    2.5556   -0.6984  -36.1989 C   0  0  0  0  0  0  0  0  0  0  0  0
    3.7441   -0.5703  -37.1496 C   0  0  0  0  0  0  0  0  0  0  0  0
    3.1776   -0.0858  -38.4152 N   0  0  0  0  0  0  0  0  0  0  0  0
    1.9279   -0.8484  -38.5317 C   0  0  0  0  0  0  0  0  0  0  0  0
    0.6747    0.0011  -37.0053 H   0  0  0  0  0  0  0  0  0  0  0  0
    0.7998   -1.7859  -36.9331 H   0  0  0  0  0  0  0  0  0  0  0  0
    2.6780   -1.5612  -35.5426 H   0  0  0  0  0  0  0  0  0  0  0  0
    2.4553    0.2166  -35.6144 H   0  0  0  0  0  0  0  0  0  0  0  0
    4.1831   -1.5601  -37.2980 H   0  0  0  0  0  0  0  0  0  0  0  0
    4.5021    0.1116  -36.7574 H   0  0  0  0  0  0  0  0  0  0  0  0
    3.7987   -0.2067  -39.2057 H   0  0  0  0  0  0  0  0  0  0  0  0
    1.2436   -0.3967  -39.2532 H   0  0  0  0  0  0  0  0  0  0  0  0
    2.1493   -1.8765  -38.8283 H   0  0  0  0  0  0  0  0  0  0  0  0
  1  2  1  0
  1  5  1  0
  1  6  1  0
  1  7  1  0
  2  3  1  0
  2  8  1  0
  2  9  1  0
  3  4  1  0
  3 10  1  0
  3 11  1  0
  4  5  1  0
  4 12  1  0
  5 13  1  0
  5 14  1  0
M  END
> <intraLJ>
-0.383    

> <intraEL>
0.415     

> <intraDihe>
8.071     

> <interLJ>
0.000     

> <interEJ>
0.000     

> <gridLJ>
-2.187    

> <gridEL>
0.000     

> <totalE>
5.916     

> <LGFE>
-2.187  

> <LE>
-0.437  

> <SMILES>
C1CCNC1

> <atom.dprop.GFE>
-0.25 -0.32 -0.38 -0.9 -0.34 0 0 0 0 0 0 0 0 0

> <atom.prop.CLASS>
PRPC PRPC PRPC GEND PRPC NCLA NCLA NCLA NCLA NCLA NCLA NCLA NCLA NCLA

$$$$
