52_1
     RDKit          3D

 10 10  0  0  0  0  0  0  0  0999 V2000
  -20.0618   -3.4276  -24.4120 C   0  0  0  0  0  0  0  0  0  0  0  0
  -19.3901   -4.7058  -23.9664 C   0  0  0  0  0  0  0  0  0  0  0  0
  -19.9111   -5.8624  -23.7960 N   0  0  0  0  0  0  0  0  0  0  0  0
  -18.8972   -6.6751  -23.3916 N   0  0  0  0  0  0  0  0  0  0  0  0
  -17.7802   -6.0082  -23.3214 N   0  0  0  0  0  0  0  0  0  0  0  0
  -18.1026   -4.7863  -23.6819 N   0  0  0  0  0  0  0  0  0  0  0  0
  -21.1147   -3.6458  -24.5957 H   0  0  0  0  0  0  0  0  0  0  0  0
  -19.5803   -3.0821  -25.3269 H   0  0  0  0  0  0  0  0  0  0  0  0
  -19.9614   -2.6878  -23.6178 H   0  0  0  0  0  0  0  0  0  0  0  0
  -17.4237   -4.0087  -23.7292 H   0  0  0  0  0  0  0  0  0  0  0  0
  1  2  1  0
  1  7  1  0
  1  8  1  0
  1  9  1  0
  2  3  2  0
  2  6  1  0
  3  4  1  0
  4  5  2  0
  5  6  1  0
  6 10  1  0
M  END
> <intraLJ>
-0.215    

> <intraEL>
-1.684    

> <intraDihe>
1.140     

> <interLJ>
0.000     

> <interEJ>
0.000     

> <gridLJ>
-2.160    

> <gridEL>
0.000     

> <totalE>
-2.920    

> <LGFE>
-2.160  

> <LE>
-0.360  

> <SMILES>
Cc1nnn[nH]1

> <atom.dprop.GFE>
-0.15 -0.12 -0.48 -0.47 -0.57 -0.37 0 0 0 0

> <atom.prop.CLASS>
PRPC GEHC GENA GENA GENA GEND NCLA NCLA NCLA NCLA

$$$$
