20_2
     RDKit          3D

 18 18  0  0  0  0  0  0  0  0999 V2000
  -21.6004    5.8805   -9.5622 N   0  0  0  0  0  0  0  0  0  0  0  0
  -23.0103    5.7619   -9.9513 C   0  0  0  0  0  0  0  0  0  0  0  0
  -23.9487    6.0442   -8.7852 C   0  0  0  0  0  0  0  0  0  0  0  0
  -25.2763    5.4272   -9.2338 C   0  0  0  0  0  0  0  0  0  0  0  0
  -24.9047    4.2921  -10.1966 C   0  0  0  0  0  0  0  0  0  0  0  0
  -23.3786    4.3341  -10.3327 C   0  0  0  0  0  0  0  0  0  0  0  0
  -21.4055    6.8282   -9.2701 H   0  0  0  0  0  0  0  0  0  0  0  0
  -21.0087    5.6399  -10.3447 H   0  0  0  0  0  0  0  0  0  0  0  0
  -21.4129    5.2509   -8.7965 H   0  0  0  0  0  0  0  0  0  0  0  0
  -23.2598    6.4310  -10.7810 H   0  0  0  0  0  0  0  0  0  0  0  0
  -24.0549    7.1145   -8.6004 H   0  0  0  0  0  0  0  0  0  0  0  0
  -23.6050    5.5348   -7.8825 H   0  0  0  0  0  0  0  0  0  0  0  0
  -25.8777    6.1715   -9.7621 H   0  0  0  0  0  0  0  0  0  0  0  0
  -25.8421    5.0507   -8.3776 H   0  0  0  0  0  0  0  0  0  0  0  0
  -25.3784    4.4631  -11.1669 H   0  0  0  0  0  0  0  0  0  0  0  0
  -25.2301    3.3248   -9.8049 H   0  0  0  0  0  0  0  0  0  0  0  0
  -22.9406    3.6233   -9.6290 H   0  0  0  0  0  0  0  0  0  0  0  0
  -23.0683    4.0965  -11.3512 H   0  0  0  0  0  0  0  0  0  0  0  0
  1  2  1  0
  1  7  1  0
  1  8  1  0
  1  9  1  0
  2  3  1  0
  2  6  1  0
  2 10  1  0
  3  4  1  0
  3 11  1  0
  3 12  1  0
  4  5  1  0
  4 13  1  0
  4 14  1  0
  5  6  1  0
  5 15  1  0
  5 16  1  0
  6 17  1  0
  6 18  1  0
M  CHG  1   1   1
M  END
> <intraLJ>
-0.090    

> <intraEL>
1.051     

> <intraDihe>
8.712     

> <interLJ>
0.000     

> <interEJ>
0.000     

> <gridLJ>
-2.125    

> <gridEL>
0.000     

> <totalE>
7.548     

> <LGFE>
-2.125  

> <LE>
-0.354  

> <SMILES>
[NH3+]C1CCCC1

> <atom.dprop.GFE>
-0.76 -0.44 -0.32 -0.12 -0.18 -0.3 0 0 0 0 0 0 0 0 0 0 0 0

> <atom.prop.CLASS>
MAMN PRPC PRPC PRPC PRPC PRPC NCLA NCLA NCLA NCLA NCLA NCLA NCLA NCLA NCLA NCLA NCLA NCLA

$$$$
