52_2
     RDKit          3D

  9  9  0  0  0  0  0  0  0  0999 V2000
  -18.3469   -4.3433  -24.1777 C   0  0  0  0  0  0  0  0  0  0  0  0
  -18.0167   -5.7301  -23.7105 C   0  0  0  0  0  0  0  0  0  0  0  0
  -18.6170   -6.7933  -24.1549 N   0  0  0  0  0  0  0  0  0  0  0  0
  -18.0420   -7.7878  -23.4994 N   0  0  0  0  0  0  0  0  0  0  0  0
  -17.1195   -7.2880  -22.6886 N   0  0  0  0  0  0  0  0  0  0  0  0
  -17.1021   -5.9719  -22.8213 N   0  0  0  0  0  0  0  0  0  0  0  0
  -19.1229   -4.4235  -24.9359 H   0  0  0  0  0  0  0  0  0  0  0  0
  -17.4323   -3.9185  -24.5851 H   0  0  0  0  0  0  0  0  0  0  0  0
  -18.6915   -3.7888  -23.3085 H   0  0  0  0  0  0  0  0  0  0  0  0
  1  2  1  0
  1  7  1  0
  1  8  1  0
  1  9  1  0
  2  3  1  0
  2  6  2  0
  3  4  1  0
  4  5  2  0
  5  6  1  0
M  CHG  1   3  -1
M  END
> <intraLJ>
0.213     

> <intraEL>
-1.734    

> <intraDihe>
1.640     

> <interLJ>
0.000     

> <interEJ>
0.000     

> <gridLJ>
-2.701    

> <gridEL>
0.000     

> <totalE>
-2.583    

> <LGFE>
-2.701  

> <LE>
-0.450  

> <SMILES>
Cc1nnn[n-]1

> <atom.dprop.GFE>
-0.18 -0.12 -0.7 -0.56 -0.56 -0.57 0 0 0

> <atom.prop.CLASS>
PRPC GEHC ACEC GENA GENA GENA NCLA NCLA NCLA

$$$$
