25
     RDKit          3D

 12 12  0  0  0  0  0  0  0  0999 V2000
  -29.2185  -10.0886   26.3147 O   0  0  0  0  0  0  0  0  0  0  0  0
  -29.7007  -10.4372   25.2679 C   0  0  0  0  0  0  0  0  0  0  0  0
  -29.9479  -11.8428   24.7804 C   0  0  0  0  0  0  0  0  0  0  0  0
  -30.5913  -11.6119   23.3831 C   0  0  0  0  0  0  0  0  0  0  0  0
  -30.6092  -10.1088   23.2688 C   0  0  0  0  0  0  0  0  0  0  0  0
  -31.0125   -9.4371   22.3537 O   0  0  0  0  0  0  0  0  0  0  0  0
  -30.0962   -9.5315   24.3640 N   0  0  0  0  0  0  0  0  0  0  0  0
  -30.6451  -12.3274   25.4485 H   0  0  0  0  0  0  0  0  0  0  0  0
  -28.9976  -12.3495   24.6848 H   0  0  0  0  0  0  0  0  0  0  0  0
  -31.6093  -11.9749   23.3652 H   0  0  0  0  0  0  0  0  0  0  0  0
  -29.9629  -12.0140   22.6000 H   0  0  0  0  0  0  0  0  0  0  0  0
  -30.0175   -8.5184   24.4942 H   0  0  0  0  0  0  0  0  0  0  0  0
  1  2  2  0
  2  3  1  0
  2  7  1  0
  3  4  1  0
  3  8  1  0
  3  9  1  0
  4  5  1  0
  4 10  1  0
  4 11  1  0
  5  6  2  0
  5  7  1  0
  7 12  1  0
M  END
> <intraLJ>
-0.774    

> <intraEL>
-6.724    

> <intraDihe>
1.508     

> <interLJ>
0.000     

> <interEJ>
0.000     

> <gridLJ>
-3.819    

> <gridEL>
0.000     

> <totalE>
-9.808    

> <LGFE>
-3.819  

> <LE>
-0.546  

> <SMILES>
O=C1CCC(=O)N1

> <atom.dprop.GFE>
-0.91 -0.26 -0.42 -0.35 0.0063 -1.1 -0.77 0 0 0 0 0

> <atom.prop.CLASS>
GENA GEHC PRPC PRPC GEHC GENA GEND NCLA NCLA NCLA NCLA NCLA

$$$$
