57_1
     RDKit          3D

 15 15  0  0  0  0  0  0  0  0999 V2000
   14.9201   17.2217   -2.5616 O   0  0  0  0  0  0  0  0  0  0  0  0
   15.3296   16.9983   -3.7786 C   0  0  0  0  0  0  0  0  0  0  0  0
   14.9922   17.8381   -4.5676 O   0  0  0  0  0  0  0  0  0  0  0  0
   16.1570   15.7605   -4.0768 C   0  0  0  0  0  0  0  0  0  0  0  0
   17.5402   15.7543   -3.3657 C   0  0  0  0  0  0  0  0  0  0  0  0
   18.1079   15.1524   -4.6855 C   0  0  0  0  0  0  0  0  0  0  0  0
   16.9208   15.8353   -5.4287 C   0  0  0  0  0  0  0  0  0  0  0  0
   14.4431   18.0451   -2.6782 H   0  0  0  0  0  0  0  0  0  0  0  0
   15.5884   14.8481   -3.9417 H   0  0  0  0  0  0  0  0  0  0  0  0
   17.5956   15.0889   -2.5153 H   0  0  0  0  0  0  0  0  0  0  0  0
   17.9271   16.7451   -3.1644 H   0  0  0  0  0  0  0  0  0  0  0  0
   18.0475   14.0719   -4.7095 H   0  0  0  0  0  0  0  0  0  0  0  0
   19.0807   15.5355   -4.9617 H   0  0  0  0  0  0  0  0  0  0  0  0
   17.1557   16.8453   -5.7397 H   0  0  0  0  0  0  0  0  0  0  0  0
   16.4867   15.2320   -6.2149 H   0  0  0  0  0  0  0  0  0  0  0  0
  1  2  1  0
  1  8  1  0
  2  3  2  0
  2  4  1  0
  4  5  1  0
  4  7  1  0
  4  9  1  0
  5  6  1  0
  5 10  1  0
  5 11  1  0
  6  7  1  0
  6 12  1  0
  6 13  1  0
  7 14  1  0
  7 15  1  0
M  END
> <intraLJ>
-0.773    

> <intraEL>
-1.741    

> <intraDihe>
17.650    

> <interLJ>
0.000     

> <interEJ>
0.000     

> <gridLJ>
-2.413    

> <gridEL>
0.000     

> <totalE>
12.723    

> <LGFE>
-2.413  

> <LE>
-0.345  

> <SMILES>
O=C(O)C1CCC1

> <atom.dprop.GFE>
-0.31 0 -0.4 -0.28 -0.38 -0.59 -0.46 0 0 0 0 0 0 0 0

> <atom.prop.CLASS>
MEOO NCLA GENA PRPC PRPC PRPC PRPC NCLA NCLA NCLA NCLA NCLA NCLA NCLA NCLA

$$$$
