40_3
     RDKit          3D

 11 11  0  0  0  0  0  0  0  0999 V2000
   24.3472    8.0664   -8.5021 O   0  0  0  0  0  0  0  0  0  0  0  0
   23.2811    7.4698   -8.2467 C   0  0  0  0  0  0  0  0  0  0  0  0
   22.0237    8.0972   -8.4780 C   0  0  0  0  0  0  0  0  0  0  0  0
   20.8759    7.4246   -8.1913 C   0  0  0  0  0  0  0  0  0  0  0  0
   20.9594    6.1414   -7.6795 N   0  0  0  0  0  0  0  0  0  0  0  0
   22.1452    5.5138   -7.4476 N   0  0  0  0  0  0  0  0  0  0  0  0
   23.2580    6.1393   -7.7145 C   0  0  0  0  0  0  0  0  0  0  0  0
   22.0107    9.0800   -8.8697 H   0  0  0  0  0  0  0  0  0  0  0  0
   19.8929    7.8038   -8.3277 H   0  0  0  0  0  0  0  0  0  0  0  0
   20.0865    5.6142   -7.4557 H   0  0  0  0  0  0  0  0  0  0  0  0
   24.1779    5.6477   -7.5314 H   0  0  0  0  0  0  0  0  0  0  0  0
  1  2  2  0
  2  3  1  0
  2  7  1  0
  3  4  2  0
  3  8  1  0
  4  5  1  0
  4  9  1  0
  5  6  1  0
  5 10  1  0
  6  7  2  0
  7 11  1  0
M  END
> <intraLJ>
10.148    

> <intraEL>
-0.725    

> <intraDihe>
0.000     

> <interLJ>
0.000     

> <interEJ>
0.000     

> <gridLJ>
-4.222    

> <gridEL>
0.000     

> <totalE>
5.201     

> <LGFE>
-4.222  

> <LE>
-0.603  

> <SMILES>
O=c1cc[nH]nc1

> <atom.dprop.GFE>
-1.3 -0.4 -0.1 -0.064 -1.1 -1.1 -0.19 0 0 0 0

> <atom.prop.CLASS>
GENA GEHC BENC BENC GEND GENA BENC NCLA NCLA NCLA NCLA

$$$$
