23_3
     RDKit          3D

 11 11  0  0  0  0  0  0  0  0999 V2000
  -21.0503    7.0806    6.6544 O   0  0  0  0  0  0  0  0  0  0  0  0
  -20.8315    5.9047    6.9027 C   0  0  0  0  0  0  0  0  0  0  0  0
  -21.7574    5.0073    6.4546 N   0  0  0  0  0  0  0  0  0  0  0  0
  -21.6382    3.6555    6.6628 C   0  0  0  0  0  0  0  0  0  0  0  0
  -20.5417    3.2285    7.3459 C   0  0  0  0  0  0  0  0  0  0  0  0
  -19.5857    4.1784    7.8056 C   0  0  0  0  0  0  0  0  0  0  0  0
  -19.7212    5.4376    7.5975 N   0  0  0  0  0  0  0  0  0  0  0  0
  -22.5523    5.4213    5.9486 H   0  0  0  0  0  0  0  0  0  0  0  0
  -22.4105    3.0365    6.2757 H   0  0  0  0  0  0  0  0  0  0  0  0
  -20.3838    2.2014    7.5431 H   0  0  0  0  0  0  0  0  0  0  0  0
  -18.7320    3.8408    8.3373 H   0  0  0  0  0  0  0  0  0  0  0  0
  1  2  2  0
  2  3  1  0
  2  7  1  0
  3  4  1  0
  3  8  1  0
  4  5  2  0
  4  9  1  0
  5  6  1  0
  5 10  1  0
  6  7  2  0
  6 11  1  0
M  END
> <intraLJ>
11.692    

> <intraEL>
-4.846    

> <intraDihe>
0.000     

> <interLJ>
0.000     

> <interEJ>
0.000     

> <gridLJ>
-5.178    

> <gridEL>
0.000     

> <totalE>
1.669     

> <LGFE>
-5.178  

> <LE>
-0.740  

> <SMILES>
O=c1nccc[nH]1

> <atom.dprop.GFE>
-1.5 -0.31 -1 -0.098 -0.1 -0.3 -1.8 0 0 0 0

> <atom.prop.CLASS>
GENA GEHC GEND BENC BENC BENC GENA NCLA NCLA NCLA NCLA

$$$$
