80
     RDKit          3D

 16 16  0  0  0  0  0  0  0  0999 V2000
   24.2293    9.1921  -15.3701 N   0  0  0  0  0  0  0  0  0  0  0  0
   24.6604   10.3571  -15.8782 C   0  0  0  0  0  0  0  0  0  0  0  0
   25.6480   10.8299  -15.3637 O   0  0  0  0  0  0  0  0  0  0  0  0
   23.8980   10.9819  -17.0345 C   0  0  0  0  0  0  0  0  0  0  0  0
   24.2254   12.4854  -17.2533 C   0  0  0  0  0  0  0  0  0  0  0  0
   22.7055   12.6768  -17.5361 C   0  0  0  0  0  0  0  0  0  0  0  0
   22.4504   11.4111  -16.6654 C   0  0  0  0  0  0  0  0  0  0  0  0
   24.7534    8.8017  -14.6052 H   0  0  0  0  0  0  0  0  0  0  0  0
   23.4176    8.7344  -15.7416 H   0  0  0  0  0  0  0  0  0  0  0  0
   23.9615   10.3832  -17.9355 H   0  0  0  0  0  0  0  0  0  0  0  0
   24.8612   12.6787  -18.1062 H   0  0  0  0  0  0  0  0  0  0  0  0
   24.5435   12.9956  -16.3533 H   0  0  0  0  0  0  0  0  0  0  0  0
   22.4537   12.5224  -18.5782 H   0  0  0  0  0  0  0  0  0  0  0  0
   22.2909   13.5867  -17.1252 H   0  0  0  0  0  0  0  0  0  0  0  0
   22.3219   11.6520  -15.6182 H   0  0  0  0  0  0  0  0  0  0  0  0
   21.6833   10.7548  -17.0529 H   0  0  0  0  0  0  0  0  0  0  0  0
  1  2  1  0
  1  8  1  0
  1  9  1  0
  2  3  2  0
  2  4  1  0
  4  5  1  0
  4  7  1  0
  4 10  1  0
  5  6  1  0
  5 11  1  0
  5 12  1  0
  6  7  1  0
  6 13  1  0
  6 14  1  0
  7 15  1  0
  7 16  1  0
M  END
> <intraLJ>
0.057     

> <intraEL>
-0.842    

> <intraDihe>
21.656    

> <interLJ>
0.000     

> <interEJ>
0.000     

> <gridLJ>
-2.350    

> <gridEL>
0.000     

> <totalE>
18.522    

> <LGFE>
-2.350  

> <LE>
-0.336  

> <SMILES>
NC(=O)C1CCC1

> <atom.dprop.GFE>
-0.54 0 -0.33 -0.33 -0.32 -0.4 -0.43 0 0 0 0 0 0 0 0 0

> <atom.prop.CLASS>
GEND NCLA GENA PRPC PRPC PRPC PRPC NCLA NCLA NCLA NCLA NCLA NCLA NCLA NCLA NCLA

$$$$
