55
     RDKit          3D

  7  7  0  0  0  0  0  0  0  0999 V2000
   17.9454    5.4239   -5.5255 C   0  0  0  0  0  0  0  0  0  0  0  0
   18.5079    6.5641   -5.3939 N   0  0  0  0  0  0  0  0  0  0  0  0
   17.9923    7.1034   -4.2431 N   0  0  0  0  0  0  0  0  0  0  0  0
   17.1684    6.2357   -3.7920 C   0  0  0  0  0  0  0  0  0  0  0  0
   17.1066    5.1779   -4.5554 O   0  0  0  0  0  0  0  0  0  0  0  0
   18.0884    4.7105   -6.2981 H   0  0  0  0  0  0  0  0  0  0  0  0
   16.5737    6.2940   -2.9158 H   0  0  0  0  0  0  0  0  0  0  0  0
  1  2  2  0
  1  5  1  0
  1  6  1  0
  2  3  1  0
  3  4  2  0
  4  5  1  0
  4  7  1  0
M  END
> <intraLJ>
-0.193    

> <intraEL>
-0.061    

> <intraDihe>
0.000     

> <interLJ>
0.000     

> <interEJ>
0.000     

> <gridLJ>
-3.258    

> <gridEL>
0.000     

> <totalE>
-3.512    

> <LGFE>
-3.258  

> <LE>
-0.652  

> <SMILES>
c1nnco1

> <atom.dprop.GFE>
-0.24 -0.93 -0.94 -0.27 -0.87 0 0

> <atom.prop.CLASS>
GEHC GENA GENA GEHC GENA NCLA NCLA

$$$$
