71_2
     RDKit          3D

 19 19  0  0  0  0  0  0  0  0999 V2000
   -9.7933  -13.0000   -4.5686 C   0  0  0  0  0  0  0  0  0  0  0  0
  -11.0189  -12.9071   -5.4751 C   0  0  0  0  0  0  0  0  0  0  0  0
  -12.2622  -12.5072   -4.7628 N   0  0  0  0  0  0  0  0  0  0  0  0
  -12.4866  -13.1573   -3.4353 C   0  0  0  0  0  0  0  0  0  0  0  0
  -12.0502  -14.6265   -3.3568 C   0  0  0  0  0  0  0  0  0  0  0  0
  -10.6802  -14.6622   -2.9715 O   0  0  0  0  0  0  0  0  0  0  0  0
   -9.6920  -14.4078   -3.9611 C   0  0  0  0  0  0  0  0  0  0  0  0
   -9.8110  -12.2416   -3.7850 H   0  0  0  0  0  0  0  0  0  0  0  0
   -8.9034  -12.8389   -5.1788 H   0  0  0  0  0  0  0  0  0  0  0  0
  -11.1569  -13.8957   -5.9239 H   0  0  0  0  0  0  0  0  0  0  0  0
  -10.8183  -12.2058   -6.2911 H   0  0  0  0  0  0  0  0  0  0  0  0
  -13.0438  -12.7066   -5.3745 H   0  0  0  0  0  0  0  0  0  0  0  0
  -12.2517  -11.5053   -4.6078 H   0  0  0  0  0  0  0  0  0  0  0  0
  -13.5354  -13.0658   -3.1398 H   0  0  0  0  0  0  0  0  0  0  0  0
  -11.8900  -12.6422   -2.6778 H   0  0  0  0  0  0  0  0  0  0  0  0
  -12.2303  -15.1590   -4.2917 H   0  0  0  0  0  0  0  0  0  0  0  0
  -12.6289  -15.1096   -2.5672 H   0  0  0  0  0  0  0  0  0  0  0  0
   -8.7142  -14.5044   -3.4836 H   0  0  0  0  0  0  0  0  0  0  0  0
   -9.7453  -15.1650   -4.7461 H   0  0  0  0  0  0  0  0  0  0  0  0
  1  2  1  0
  1  7  1  0
  1  8  1  0
  1  9  1  0
  2  3  1  0
  2 10  1  0
  2 11  1  0
  3  4  1  0
  3 12  1  0
  3 13  1  0
  4  5  1  0
  4 14  1  0
  4 15  1  0
  5  6  1  0
  5 16  1  0
  5 17  1  0
  6  7  1  0
  7 18  1  0
  7 19  1  0
M  CHG  1   3   1
M  END
> <intraLJ>
1.159     

> <intraEL>
4.103     

> <intraDihe>
11.900    

> <interLJ>
0.000     

> <interEJ>
0.000     

> <gridLJ>
-2.346    

> <gridEL>
0.000     

> <totalE>
14.816    

> <LGFE>
-2.346  

> <LE>
-0.335  

> <SMILES>
C1C[NH2+]CCOC1

> <atom.dprop.GFE>
-0.19 -0.048 -1.6 -0.035 -0.16 -0.12 -0.21 0 0 0 0 0 0 0 0 0 0 0 0

> <atom.prop.CLASS>
PRPC PRPC MAMN PRPC PRPC GENA PRPC NCLA NCLA NCLA NCLA NCLA NCLA NCLA NCLA NCLA NCLA NCLA NCLA

$$$$
