17_1
     RDKit          3D

 15 15  0  0  0  0  0  0  0  0999 V2000
  -24.3586   -3.2226   30.9327 N   0  0  0  0  0  0  0  0  0  0  0  0
  -25.1274   -4.1069   31.5831 C   0  0  0  0  0  0  0  0  0  0  0  0
  -24.5682   -4.8631   32.3475 O   0  0  0  0  0  0  0  0  0  0  0  0
  -26.6497   -4.0843   31.2911 C   0  0  0  0  0  0  0  0  0  0  0  0
  -27.1531   -2.9995   30.4417 N   0  0  0  0  0  0  0  0  0  0  0  0
  -27.5928   -4.5628   32.3455 C   0  0  0  0  0  0  0  0  0  0  0  0
  -27.3282   -5.4013   31.1077 C   0  0  0  0  0  0  0  0  0  0  0  0
  -23.3698   -3.2323   31.1064 H   0  0  0  0  0  0  0  0  0  0  0  0
  -24.8018   -2.5826   30.2956 H   0  0  0  0  0  0  0  0  0  0  0  0
  -27.0707   -2.1222   30.9636 H   0  0  0  0  0  0  0  0  0  0  0  0
  -28.1525   -3.1542   30.2857 H   0  0  0  0  0  0  0  0  0  0  0  0
  -28.5547   -4.0729   32.4064 H   0  0  0  0  0  0  0  0  0  0  0  0
  -27.1501   -4.9160   33.2683 H   0  0  0  0  0  0  0  0  0  0  0  0
  -26.7158   -6.2820   31.2470 H   0  0  0  0  0  0  0  0  0  0  0  0
  -28.1129   -5.4463   30.3653 H   0  0  0  0  0  0  0  0  0  0  0  0
  1  2  1  0
  1  8  1  0
  1  9  1  0
  2  3  2  0
  2  4  1  0
  4  5  1  0
  4  6  1  0
  4  7  1  0
  5 10  1  0
  5 11  1  0
  6  7  1  0
  6 12  1  0
  6 13  1  0
  7 14  1  0
  7 15  1  0
M  END
> <intraLJ>
2.988     

> <intraEL>
0.459     

> <intraDihe>
8.505     

> <interLJ>
0.000     

> <interEJ>
0.000     

> <gridLJ>
-2.313    

> <gridEL>
0.000     

> <totalE>
9.640     

> <LGFE>
-2.313  

> <LE>
-0.330  

> <SMILES>
NC(=O)C1(N)CC1

> <atom.dprop.GFE>
-0.51 0 -0.68 -0.32 -0.37 -0.25 -0.18 0 0 0 0 0 0 0 0

> <atom.prop.CLASS>
GEND NCLA GENA PRPC GEND PRPC PRPC NCLA NCLA NCLA NCLA NCLA NCLA NCLA NCLA

$$$$
