56
     RDKit          3D

 13 12  0  0  0  0  0  0  0  0999 V2000
    5.2741   11.6138  -37.4015 C   0  0  0  0  0  0  0  0  0  0  0  0
    5.9884   12.1520  -36.1899 C   0  0  0  0  0  0  0  0  0  0  0  0
    5.3936   12.4225  -35.1703 O   0  0  0  0  0  0  0  0  0  0  0  0
    7.3437   12.3198  -36.2960 N   0  0  0  0  0  0  0  0  0  0  0  0
    8.2247   12.7822  -35.3641 C   0  0  0  0  0  0  0  0  0  0  0  0
    9.4013   12.8540  -35.6513 O   0  0  0  0  0  0  0  0  0  0  0  0
    7.7858   13.1449  -34.1570 N   0  0  0  0  0  0  0  0  0  0  0  0
    5.9884   11.4507  -38.1946 H   0  0  0  0  0  0  0  0  0  0  0  0
    4.5366   12.3547  -37.6738 H   0  0  0  0  0  0  0  0  0  0  0  0
    4.8014   10.6920  -37.0915 H   0  0  0  0  0  0  0  0  0  0  0  0
    7.7908   12.0759  -37.1819 H   0  0  0  0  0  0  0  0  0  0  0  0
    8.4550   13.4852  -33.4606 H   0  0  0  0  0  0  0  0  0  0  0  0
    6.7738   13.0618  -33.9594 H   0  0  0  0  0  0  0  0  0  0  0  0
  1  2  1  0
  1  8  1  0
  1  9  1  0
  1 10  1  0
  2  3  2  0
  2  4  1  0
  4  5  1  0
  4 11  1  0
  5  6  2  0
  5  7  1  0
  7 12  1  0
  7 13  1  0
M  END
> <intraLJ>
4.922     

> <intraEL>
-12.614   

> <intraDihe>
0.000     

> <interLJ>
0.000     

> <interEJ>
0.000     

> <gridLJ>
-3.431    

> <gridEL>
0.000     

> <totalE>
-11.123   

> <LGFE>
-3.431  

> <LE>
-0.490  

> <SMILES>
CC(=O)NC(N)=O

> <atom.dprop.GFE>
-0.25 0 -0.26 -0.75 0 -1.6 -0.61 0 0 0 0 0 0

> <atom.prop.CLASS>
PRPC NCLA GENA GEND NCLA GENA GEND NCLA NCLA NCLA NCLA NCLA NCLA

$$$$
