59_2
     RDKit          3D

  9  8  0  0  0  0  0  0  0  0999 V2000
  -11.2189   11.3549    2.7140 C   0  0  0  0  0  0  0  0  0  0  0  0
  -11.4153   10.1373    3.6042 C   0  0  0  0  0  0  0  0  0  0  0  0
  -10.9608    9.0840    3.1725 O   0  0  0  0  0  0  0  0  0  0  0  0
  -12.1237   10.2777    4.9096 C   0  0  0  0  0  0  0  0  0  0  0  0
  -11.4537   10.5861    5.9494 O   0  0  0  0  0  0  0  0  0  0  0  0
  -13.3806   10.0963    5.0090 O   0  0  0  0  0  0  0  0  0  0  0  0
  -10.6548   12.0724    3.2925 H   0  0  0  0  0  0  0  0  0  0  0  0
  -12.2060   11.7337    2.4884 H   0  0  0  0  0  0  0  0  0  0  0  0
  -10.6903   11.0437    1.8235 H   0  0  0  0  0  0  0  0  0  0  0  0
  1  2  1  0
  1  7  1  0
  1  8  1  0
  1  9  1  0
  2  3  2  0
  2  4  1  0
  4  5  2  0
  4  6  1  0
M  CHG  1   6  -1
M  END
> <intraLJ>
-0.400    

> <intraEL>
6.231     

> <intraDihe>
1.260     

> <interLJ>
0.000     

> <interEJ>
0.000     

> <gridLJ>
-2.194    

> <gridEL>
0.000     

> <totalE>
4.897     

> <LGFE>
-2.194  

> <LE>
-0.366  

> <SMILES>
CC(=O)C(=O)[O-]

> <atom.dprop.GFE>
-0.099 0 -1.1 -1 0 0 0 0 0

> <atom.prop.CLASS>
PRPC NCLA GENA ACEC NCLA NCLA NCLA NCLA NCLA

$$$$
