36_2
     RDKit          3D

 14 14  0  0  0  0  0  0  0  0999 V2000
  -15.1299    6.3559  -21.1022 N   0  0  0  0  0  0  0  0  0  0  0  0
  -14.9320    5.3200  -20.0890 C   0  0  0  0  0  0  0  0  0  0  0  0
  -14.9575    6.1045  -18.7902 C   0  0  0  0  0  0  0  0  0  0  0  0
  -15.9677    6.1776  -17.9076 C   0  0  0  0  0  0  0  0  0  0  0  0
  -15.5936    6.9717  -16.9219 O   0  0  0  0  0  0  0  0  0  0  0  0
  -14.3521    7.3734  -17.2313 C   0  0  0  0  0  0  0  0  0  0  0  0
  -13.9212    6.8801  -18.3438 N   0  0  0  0  0  0  0  0  0  0  0  0
  -15.5525    5.9750  -21.9339 H   0  0  0  0  0  0  0  0  0  0  0  0
  -14.2453    6.8081  -21.2761 H   0  0  0  0  0  0  0  0  0  0  0  0
  -15.7265    7.0367  -20.6323 H   0  0  0  0  0  0  0  0  0  0  0  0
  -13.9721    4.8312  -20.2056 H   0  0  0  0  0  0  0  0  0  0  0  0
  -15.7711    4.6322  -20.0819 H   0  0  0  0  0  0  0  0  0  0  0  0
  -16.9292    5.7264  -17.9026 H   0  0  0  0  0  0  0  0  0  0  0  0
  -13.8429    8.0333  -16.5715 H   0  0  0  0  0  0  0  0  0  0  0  0
  1  2  1  0
  1  8  1  0
  1  9  1  0
  1 10  1  0
  2  3  1  0
  2 11  1  0
  2 12  1  0
  3  4  2  0
  3  7  1  0
  4  5  1  0
  4 13  1  0
  5  6  1  0
  6  7  2  0
  6 14  1  0
M  CHG  1   1   1
M  END
> <intraLJ>
0.683     

> <intraEL>
5.048     

> <intraDihe>
12.047    

> <interLJ>
0.000     

> <interEJ>
0.000     

> <gridLJ>
-2.164    

> <gridEL>
0.000     

> <totalE>
15.616    

> <LGFE>
-2.164  

> <LE>
-0.309  

> <SMILES>
[NH3+]Cc1cocn1

> <atom.dprop.GFE>
-0.12 0.064 -0.18 -0.18 -1 -0.16 -0.56 0 0 0 0 0 0 0

> <atom.prop.CLASS>
MAMN PRPC GEHC GEHC GENA GEHC GENA NCLA NCLA NCLA NCLA NCLA NCLA NCLA

$$$$
