46_2
     RDKit          3D

 15 15  0  0  0  0  0  0  0  0999 V2000
  -17.9552   -9.2175   -7.7507 C   0  0  0  0  0  0  0  0  0  0  0  0
  -17.0623   -8.1023   -7.1751 C   0  0  0  0  0  0  0  0  0  0  0  0
  -17.6985   -7.7697   -5.8284 C   0  0  0  0  0  0  0  0  0  0  0  0
  -18.3867   -9.0091   -5.4273 N   0  0  0  0  0  0  0  0  0  0  0  0
  -19.0324   -9.4178   -6.6876 C   0  0  0  0  0  0  0  0  0  0  0  0
  -17.3777  -10.1350   -7.8768 H   0  0  0  0  0  0  0  0  0  0  0  0
  -18.4039   -8.9242   -8.7024 H   0  0  0  0  0  0  0  0  0  0  0  0
  -17.0502   -7.2224   -7.8220 H   0  0  0  0  0  0  0  0  0  0  0  0
  -16.0451   -8.4730   -7.0299 H   0  0  0  0  0  0  0  0  0  0  0  0
  -18.4284   -6.9701   -5.9830 H   0  0  0  0  0  0  0  0  0  0  0  0
  -16.9534   -7.4425   -5.0971 H   0  0  0  0  0  0  0  0  0  0  0  0
  -19.0380   -8.8805   -4.6619 H   0  0  0  0  0  0  0  0  0  0  0  0
  -17.6912   -9.7016   -5.1818 H   0  0  0  0  0  0  0  0  0  0  0  0
  -19.3934  -10.4498   -6.6645 H   0  0  0  0  0  0  0  0  0  0  0  0
  -19.8664   -8.7473   -6.9149 H   0  0  0  0  0  0  0  0  0  0  0  0
  1  2  1  0
  1  5  1  0
  1  6  1  0
  1  7  1  0
  2  3  1  0
  2  8  1  0
  2  9  1  0
  3  4  1  0
  3 10  1  0
  3 11  1  0
  4  5  1  0
  4 12  1  0
  4 13  1  0
  5 14  1  0
  5 15  1  0
M  CHG  1   4   1
M  END
> <intraLJ>
-0.364    

> <intraEL>
9.610     

> <intraDihe>
5.719     

> <interLJ>
0.000     

> <interEJ>
0.000     

> <gridLJ>
-2.109    

> <gridEL>
0.000     

> <totalE>
12.857    

> <LGFE>
-2.109  

> <LE>
-0.422  

> <SMILES>
C1CC[NH2+]C1

> <atom.dprop.GFE>
-0.19 -0.15 -0.064 -1.7 -0.032 0 0 0 0 0 0 0 0 0 0

> <atom.prop.CLASS>
PRPC PRPC PRPC MAMN PRPC NCLA NCLA NCLA NCLA NCLA NCLA NCLA NCLA NCLA NCLA

$$$$
