74_2
     RDKit          3D

 12 12  0  0  0  0  0  0  0  0999 V2000
    9.7113   12.9251  -35.9362 O   0  0  0  0  0  0  0  0  0  0  0  0
    8.4985   12.7472  -36.0548 C   0  0  0  0  0  0  0  0  0  0  0  0
    7.5016   13.0065  -35.0596 C   0  0  0  0  0  0  0  0  0  0  0  0
    6.1841   12.7666  -35.3169 C   0  0  0  0  0  0  0  0  0  0  0  0
    5.7987   12.2540  -36.5907 C   0  0  0  0  0  0  0  0  0  0  0  0
    6.7449   12.0044  -37.5443 C   0  0  0  0  0  0  0  0  0  0  0  0
    8.0774   12.2551  -37.2602 N   0  0  0  0  0  0  0  0  0  0  0  0
    7.8266   13.3878  -34.1272 H   0  0  0  0  0  0  0  0  0  0  0  0
    5.4439   12.9582  -34.5814 H   0  0  0  0  0  0  0  0  0  0  0  0
    4.7731   12.0691  -36.7868 H   0  0  0  0  0  0  0  0  0  0  0  0
    6.5409   11.6233  -38.5149 H   0  0  0  0  0  0  0  0  0  0  0  0
    8.8220   12.0816  -37.9503 H   0  0  0  0  0  0  0  0  0  0  0  0
  1  2  2  0
  2  3  1  0
  2  7  1  0
  3  4  2  0
  3  8  1  0
  4  5  1  0
  4  9  1  0
  5  6  2  0
  5 10  1  0
  6  7  1  0
  6 11  1  0
  7 12  1  0
M  END
> <intraLJ>
7.690     

> <intraEL>
-2.793    

> <intraDihe>
0.000     

> <interLJ>
0.000     

> <interEJ>
0.000     

> <gridLJ>
-3.006    

> <gridEL>
0.000     

> <totalE>
1.891     

> <LGFE>
-3.006  

> <LE>
-0.429  

> <SMILES>
O=c1cccc[nH]1

> <atom.dprop.GFE>
-1.6 -0.19 -0.15 -0.11 -0.13 -0.12 -0.75 0 0 0 0 0

> <atom.prop.CLASS>
GENA GEHC BENC BENC BENC BENC GEND NCLA NCLA NCLA NCLA NCLA

$$$$
