60_1
     RDKit          3D

 13 13  0  0  0  0  0  0  0  0999 V2000
   -1.5924    0.1587    9.2095 N   0  0  0  0  0  0  0  0  0  0  0  0
   -1.7334    1.4621    8.7769 C   0  0  0  0  0  0  0  0  0  0  0  0
   -0.9415    2.4722    9.3097 C   0  0  0  0  0  0  0  0  0  0  0  0
   -1.1190    3.7718    8.8553 C   0  0  0  0  0  0  0  0  0  0  0  0
   -2.0243    4.0777    7.9188 N   0  0  0  0  0  0  0  0  0  0  0  0
   -2.7837    3.1079    7.3969 C   0  0  0  0  0  0  0  0  0  0  0  0
   -2.6671    1.7849    7.7990 C   0  0  0  0  0  0  0  0  0  0  0  0
   -2.3947   -0.4639    9.0349 H   0  0  0  0  0  0  0  0  0  0  0  0
   -1.1396    0.0334   10.1261 H   0  0  0  0  0  0  0  0  0  0  0  0
   -0.2163    2.2521   10.0472 H   0  0  0  0  0  0  0  0  0  0  0  0
   -0.5283    4.5595    9.2472 H   0  0  0  0  0  0  0  0  0  0  0  0
   -3.4897    3.3801    6.6532 H   0  0  0  0  0  0  0  0  0  0  0  0
   -3.2738    1.0344    7.3694 H   0  0  0  0  0  0  0  0  0  0  0  0
  1  2  1  0
  1  8  1  0
  1  9  1  0
  2  3  2  0
  2  7  1  0
  3  4  1  0
  3 10  1  0
  4  5  2  0
  4 11  1  0
  5  6  1  0
  6  7  2  0
  6 12  1  0
  7 13  1  0
M  END
> <intraLJ>
12.679    

> <intraEL>
-3.147    

> <intraDihe>
1.319     

> <interLJ>
0.000     

> <interEJ>
0.000     

> <gridLJ>
-2.579    

> <gridEL>
0.000     

> <totalE>
8.272     

> <LGFE>
-2.579  

> <LE>
-0.368  

> <SMILES>
Nc1ccncc1

> <atom.dprop.GFE>
-0.87 -0.23 -0.11 0.014 -1.1 -0.1 -0.2 0 0 0 0 0 0

> <atom.prop.CLASS>
GEND BENC BENC GEHC GENA GEHC BENC NCLA NCLA NCLA NCLA NCLA NCLA

$$$$
