68_1
     RDKit          3D

 17 16  0  0  1  0  0  0  0  0999 V2000
  -40.0368    8.9910   20.2877 C   0  0  0  0  0  0  0  0  0  0  0  0
  -39.1397    7.8627   20.7822 C   0  0  0  0  0  0  0  0  0  0  0  0
  -38.2857    7.4325   19.6667 N   0  0  0  0  0  0  0  0  0  0  0  0
  -39.9873    6.7050   21.3180 C   0  0  0  0  0  0  0  0  0  0  0  0
  -40.8181    7.1214   22.5202 C   0  0  0  0  0  0  0  0  0  0  0  0
  -42.0316    7.2056   22.4531 O   0  0  0  0  0  0  0  0  0  0  0  0
  -40.2062    7.4052   23.6542 N   0  0  0  0  0  0  0  0  0  0  0  0
  -40.6482    9.3674   21.1088 H   0  0  0  0  0  0  0  0  0  0  0  0
  -40.6837    8.6363   19.4848 H   0  0  0  0  0  0  0  0  0  0  0  0
  -39.4162    9.8039   19.9112 H   0  0  0  0  0  0  0  0  0  0  0  0
  -38.5132    8.2454   21.5937 H   0  0  0  0  0  0  0  0  0  0  0  0
  -38.8444    7.1119   18.8900 H   0  0  0  0  0  0  0  0  0  0  0  0
  -37.6421    6.7141   19.9744 H   0  0  0  0  0  0  0  0  0  0  0  0
  -39.3472    5.8653   21.5834 H   0  0  0  0  0  0  0  0  0  0  0  0
  -40.6781    6.3794   20.5416 H   0  0  0  0  0  0  0  0  0  0  0  0
  -40.7938    7.6731   24.4263 H   0  0  0  0  0  0  0  0  0  0  0  0
  -39.2076    7.3386   23.7329 H   0  0  0  0  0  0  0  0  0  0  0  0
  1  2  1  0
  1  8  1  0
  1  9  1  0
  1 10  1  0
  2  3  1  0
  2  4  1  0
  2 11  1  0
  3 12  1  0
  3 13  1  0
  4  5  1  0
  4 14  1  0
  4 15  1  0
  5  6  2  0
  5  7  1  0
  7 16  1  0
  7 17  1  0
M  END
> <intraLJ>
1.221     

> <intraEL>
-12.177   

> <intraDihe>
0.860     

> <interLJ>
0.000     

> <interEJ>
0.000     

> <gridLJ>
-3.204    

> <gridEL>
0.000     

> <totalE>
-13.300   

> <LGFE>
-3.204  

> <LE>
-0.458  

> <SMILES>
CC(N)CC(N)=O

> <atom.dprop.GFE>
-0.36 -0.5 -0.84 -0.6 0 -0.27 -0.63 0 0 0 0 0 0 0 0 0 0

> <atom.prop.CLASS>
PRPC PRPC GEND PRPC NCLA GENA GEND NCLA NCLA NCLA NCLA NCLA NCLA NCLA NCLA NCLA NCLA

$$$$
