61_2
     RDKit          3D

 17 17  0  0  0  0  0  0  0  0999 V2000
   13.1293   12.6631    4.3644 C   0  0  0  0  0  0  0  0  0  0  0  0
   13.0021   11.1417    4.5945 C   0  0  0  0  0  0  0  0  0  0  0  0
   11.8726   10.8095    5.5154 N   0  0  0  0  0  0  0  0  0  0  0  0
   12.0401   11.5345    6.8131 C   0  0  0  0  0  0  0  0  0  0  0  0
   12.1570   13.0603    6.6087 C   0  0  0  0  0  0  0  0  0  0  0  0
   13.2434   13.3986    5.6520 N   0  0  0  0  0  0  0  0  0  0  0  0
   12.2525   13.0141    3.8150 H   0  0  0  0  0  0  0  0  0  0  0  0
   14.0129   12.8585    3.7518 H   0  0  0  0  0  0  0  0  0  0  0  0
   13.9443   10.7963    5.0296 H   0  0  0  0  0  0  0  0  0  0  0  0
   12.8714   10.6462    3.6285 H   0  0  0  0  0  0  0  0  0  0  0  0
   11.8372    9.8111    5.6765 H   0  0  0  0  0  0  0  0  0  0  0  0
   11.0068   11.1069    5.0875 H   0  0  0  0  0  0  0  0  0  0  0  0
   12.9561   11.1983    7.3049 H   0  0  0  0  0  0  0  0  0  0  0  0
   11.1996   11.3296    7.4807 H   0  0  0  0  0  0  0  0  0  0  0  0
   12.3585   13.5336    7.5731 H   0  0  0  0  0  0  0  0  0  0  0  0
   11.2042   13.4430    6.2350 H   0  0  0  0  0  0  0  0  0  0  0  0
   13.3170   14.4051    5.5048 H   0  0  0  0  0  0  0  0  0  0  0  0
  1  2  1  0
  1  6  1  0
  1  7  1  0
  1  8  1  0
  2  3  1  0
  2  9  1  0
  2 10  1  0
  3  4  1  0
  3 11  1  0
  3 12  1  0
  4  5  1  0
  4 13  1  0
  4 14  1  0
  5  6  1  0
  5 15  1  0
  5 16  1  0
  6 17  1  0
M  CHG  1   3   1
M  END
> <intraLJ>
1.222     

> <intraEL>
7.977     

> <intraDihe>
5.373     

> <interLJ>
0.000     

> <interEJ>
0.000     

> <gridLJ>
-2.143    

> <gridEL>
0.000     

> <totalE>
12.430    

> <LGFE>
-2.143  

> <LE>
-0.357  

> <SMILES>
C1C[NH2+]CCN1

> <atom.dprop.GFE>
-0.13 -0.13 -1.1 -0.12 -0.11 -0.56 0 0 0 0 0 0 0 0 0 0 0

> <atom.prop.CLASS>
PRPC PRPC MAMN PRPC PRPC GEND NCLA NCLA NCLA NCLA NCLA NCLA NCLA NCLA NCLA NCLA NCLA

$$$$
