11_3
     RDKit          3D

 11 11  0  0  0  0  0  0  0  0999 V2000
  -22.0092    0.1690   22.6881 O   0  0  0  0  0  0  0  0  0  0  0  0
  -22.7408    1.1730   22.2149 C   0  0  0  0  0  0  0  0  0  0  0  0
  -23.3867    1.1391   20.8744 C   0  0  0  0  0  0  0  0  0  0  0  0
  -24.0551    2.5201   20.9242 C   0  0  0  0  0  0  0  0  0  0  0  0
  -23.6703    3.0596   22.2331 O   0  0  0  0  0  0  0  0  0  0  0  0
  -22.8938    2.1853   22.9255 N   0  0  0  0  0  0  0  0  0  0  0  0
  -21.7452    0.5093   23.5648 H   0  0  0  0  0  0  0  0  0  0  0  0
  -24.1216    0.3492   20.8440 H   0  0  0  0  0  0  0  0  0  0  0  0
  -22.6283    1.0977   20.1066 H   0  0  0  0  0  0  0  0  0  0  0  0
  -25.1398    2.4301   20.8636 H   0  0  0  0  0  0  0  0  0  0  0  0
  -23.6761    3.1650   20.1307 H   0  0  0  0  0  0  0  0  0  0  0  0
  1  2  1  0
  1  7  1  0
  2  3  1  0
  2  6  2  0
  3  4  1  0
  3  8  1  0
  3  9  1  0
  4  5  1  0
  4 10  1  0
  4 11  1  0
  5  6  1  0
M  END
> <intraLJ>
-0.718    

> <intraEL>
-4.916    

> <intraDihe>
22.322    

> <interLJ>
0.000     

> <interEJ>
0.000     

> <gridLJ>
-3.492    

> <gridEL>
0.000     

> <totalE>
13.196    

> <LGFE>
-3.492  

> <LE>
-0.582  

> <SMILES>
OC1=NOCC1

> <atom.dprop.GFE>
-0.37 -0.058 -0.029 -0.11 -1 -1.9 0 0 0 0 0

> <atom.prop.CLASS>
MEOO GEHC PRPC PRPC GENA GENA NCLA NCLA NCLA NCLA NCLA

$$$$
