49_1
     RDKit          3D

 18 18  0  0  1  0  0  0  0  0999 V2000
  -25.1760   -3.9545    3.6964 O   0  0  0  0  0  0  0  0  0  0  0  0
  -26.5405   -4.0096    4.0958 C   0  0  0  0  0  0  0  0  0  0  0  0
  -27.2560   -5.1949    3.4302 C   0  0  0  0  0  0  0  0  0  0  0  0
  -28.7282   -5.3304    3.8144 C   0  0  0  0  0  0  0  0  0  0  0  0
  -29.0229   -6.8289    3.6172 C   0  0  0  0  0  0  0  0  0  0  0  0
  -27.6618   -7.4515    3.3063 C   0  0  0  0  0  0  0  0  0  0  0  0
  -26.6706   -6.4887    3.8066 N   0  0  0  0  0  0  0  0  0  0  0  0
  -24.6917   -3.3853    4.3004 H   0  0  0  0  0  0  0  0  0  0  0  0
  -26.6106   -4.1262    5.1778 H   0  0  0  0  0  0  0  0  0  0  0  0
  -27.0382   -3.0845    3.8030 H   0  0  0  0  0  0  0  0  0  0  0  0
  -27.1952   -5.0711    2.3466 H   0  0  0  0  0  0  0  0  0  0  0  0
  -28.8608   -5.0729    4.8658 H   0  0  0  0  0  0  0  0  0  0  0  0
  -29.3589   -4.7054    3.1811 H   0  0  0  0  0  0  0  0  0  0  0  0
  -29.7138   -6.9938    2.7907 H   0  0  0  0  0  0  0  0  0  0  0  0
  -29.4228   -7.2511    4.5397 H   0  0  0  0  0  0  0  0  0  0  0  0
  -27.5608   -7.5515    2.2232 H   0  0  0  0  0  0  0  0  0  0  0  0
  -27.5470   -8.4299    3.7771 H   0  0  0  0  0  0  0  0  0  0  0  0
  -25.7476   -6.6041    3.4039 H   0  0  0  0  0  0  0  0  0  0  0  0
  1  2  1  0
  1  8  1  0
  2  3  1  0
  2  9  1  0
  2 10  1  0
  3  4  1  0
  3  7  1  0
  3 11  1  0
  4  5  1  0
  4 12  1  0
  4 13  1  0
  5  6  1  0
  5 14  1  0
  5 15  1  0
  6  7  1  0
  6 16  1  0
  6 17  1  0
  7 18  1  0
M  END
> <intraLJ>
0.328     

> <intraEL>
1.556     

> <intraDihe>
11.881    

> <interLJ>
0.000     

> <interEJ>
0.000     

> <gridLJ>
-3.722    

> <gridEL>
0.000     

> <totalE>
10.043    

> <LGFE>
-3.722  

> <LE>
-0.532  

> <SMILES>
OCC1CCCN1

> <atom.dprop.GFE>
-1.3 -0.15 -0.37 -0.35 -0.3 -0.26 -1 0 0 0 0 0 0 0 0 0 0 0

> <atom.prop.CLASS>
MEOO PRPC PRPC PRPC PRPC PRPC GEND NCLA NCLA NCLA NCLA NCLA NCLA NCLA NCLA NCLA NCLA NCLA

$$$$
