62_2
     RDKit          3D

 11 11  0  0  0  0  0  0  0  0999 V2000
  -13.3426   -9.3331  -15.4003 O   0  0  0  0  0  0  0  0  0  0  0  0
  -13.9213  -10.4347  -15.6124 C   0  0  0  0  0  0  0  0  0  0  0  0
  -13.9092  -11.3471  -14.7403 O   0  0  0  0  0  0  0  0  0  0  0  0
  -14.6129  -10.6566  -16.8826 C   0  0  0  0  0  0  0  0  0  0  0  0
  -14.3205   -9.9762  -18.0887 C   0  0  0  0  0  0  0  0  0  0  0  0
  -15.1077  -10.3622  -19.1337 C   0  0  0  0  0  0  0  0  0  0  0  0
  -16.2404  -11.5808  -18.6701 S   0  0  0  0  0  0  0  0  0  0  0  0
  -15.6379  -11.5593  -17.0523 C   0  0  0  0  0  0  0  0  0  0  0  0
  -13.5596   -9.2394  -18.1580 H   0  0  0  0  0  0  0  0  0  0  0  0
  -15.0769   -9.9987  -20.1270 H   0  0  0  0  0  0  0  0  0  0  0  0
  -16.0434  -12.1917  -16.3042 H   0  0  0  0  0  0  0  0  0  0  0  0
  1  2  2  0
  2  3  1  0
  2  4  1  0
  4  5  1  0
  4  8  2  0
  5  6  2  0
  5  9  1  0
  6  7  1  0
  6 10  1  0
  7  8  1  0
  8 11  1  0
M  CHG  1   3  -1
M  END
> <intraLJ>
1.232     

> <intraEL>
5.024     

> <intraDihe>
2.532     

> <interLJ>
0.000     

> <interEJ>
0.000     

> <gridLJ>
-2.083    

> <gridEL>
0.000     

> <totalE>
6.704     

> <LGFE>
-2.083  

> <LE>
-0.260  

> <SMILES>
O=C([O-])c1ccsc1

> <atom.dprop.GFE>
0 -1.9 0 0.068 -0.022 -0.046 -0.21 0.026 0 0 0

> <atom.prop.CLASS>
NCLA ACEC NCLA GEHC GEHC GEHC PRPC GEHC NCLA NCLA NCLA

$$$$
