33
     RDKit          3D

 12 12  0  0  0  0  0  0  0  0999 V2000
  -23.9363    3.5242   21.4352 N   0  0  0  0  0  0  0  0  0  0  0  0
  -24.8435    4.5435   21.3454 C   0  0  0  0  0  0  0  0  0  0  0  0
  -24.4554    5.8707   21.4634 C   0  0  0  0  0  0  0  0  0  0  0  0
  -25.4450    6.8366   21.3699 C   0  0  0  0  0  0  0  0  0  0  0  0
  -26.7543    6.4227   21.1663 C   0  0  0  0  0  0  0  0  0  0  0  0
  -27.0654    5.1212   21.0595 N   0  0  0  0  0  0  0  0  0  0  0  0
  -26.1207    4.1846   21.1475 N   0  0  0  0  0  0  0  0  0  0  0  0
  -24.3863    2.6101   21.5769 H   0  0  0  0  0  0  0  0  0  0  0  0
  -23.1149    3.7121   22.0215 H   0  0  0  0  0  0  0  0  0  0  0  0
  -23.4400    6.1269   21.6122 H   0  0  0  0  0  0  0  0  0  0  0  0
  -25.2119    7.8666   21.4496 H   0  0  0  0  0  0  0  0  0  0  0  0
  -27.5421    7.1270   21.0886 H   0  0  0  0  0  0  0  0  0  0  0  0
  1  2  1  0
  1  8  1  0
  1  9  1  0
  2  3  2  0
  2  7  1  0
  3  4  1  0
  3 10  1  0
  4  5  2  0
  4 11  1  0
  5  6  1  0
  5 12  1  0
  6  7  2  0
M  END
> <intraLJ>
16.642    

> <intraEL>
-7.622    

> <intraDihe>
1.828     

> <interLJ>
0.000     

> <interEJ>
0.000     

> <gridLJ>
-2.848    

> <gridEL>
0.000     

> <totalE>
8.000     

> <LGFE>
-2.848  

> <LE>
-0.407  

> <SMILES>
Nc1cccnn1

> <atom.dprop.GFE>
-1.4 1.2 -0.035 -0.011 -0.004 -1.3 -1.3 0 0 0 0 0

> <atom.prop.CLASS>
GEND GEHC BENC BENC BENC GENA GENA NCLA NCLA NCLA NCLA NCLA

$$$$
