19_2
     RDKit          3D

 11 11  0  0  0  0  0  0  0  0999 V2000
  -21.3196    2.3153   22.0872 N   0  0  0  0  0  0  0  0  0  0  0  0
  -20.1534    1.5915   22.4114 C   0  0  0  0  0  0  0  0  0  0  0  0
  -18.8866    2.0311   22.5846 C   0  0  0  0  0  0  0  0  0  0  0  0
  -18.1207    0.9097   22.8919 C   0  0  0  0  0  0  0  0  0  0  0  0
  -18.8432   -0.1807   22.9212 N   0  0  0  0  0  0  0  0  0  0  0  0
  -20.1142    0.2499   22.6275 N   0  0  0  0  0  0  0  0  0  0  0  0
  -22.0437    1.7891   21.5717 H   0  0  0  0  0  0  0  0  0  0  0  0
  -21.1305    3.2422   21.6734 H   0  0  0  0  0  0  0  0  0  0  0  0
  -18.5510    3.0309   22.5031 H   0  0  0  0  0  0  0  0  0  0  0  0
  -17.0776    0.9136   23.0839 H   0  0  0  0  0  0  0  0  0  0  0  0
  -20.9387   -0.3734   22.5883 H   0  0  0  0  0  0  0  0  0  0  0  0
  1  2  1  0
  1  7  1  0
  1  8  1  0
  2  3  2  0
  2  6  1  0
  3  4  1  0
  3  9  1  0
  4  5  2  0
  4 10  1  0
  5  6  1  0
  6 11  1  0
M  END
> <intraLJ>
-0.470    

> <intraEL>
-4.943    

> <intraDihe>
1.563     

> <interLJ>
0.000     

> <interEJ>
0.000     

> <gridLJ>
-2.944    

> <gridEL>
0.000     

> <totalE>
-6.794    

> <LGFE>
-2.944  

> <LE>
-0.491  

> <SMILES>
Nc1ccn[nH]1

> <atom.dprop.GFE>
-0.75 -0.32 -0.071 -0.21 -0.68 -0.92 0 0 0 0 0

> <atom.prop.CLASS>
GEND GEHC GEHC GEHC GENA GEND NCLA NCLA NCLA NCLA NCLA

$$$$
