70_1
     RDKit          3D

 12 12  0  0  0  0  0  0  0  0999 V2000
   22.5396   10.8215  -31.7210 N   0  0  0  0  0  0  0  0  0  0  0  0
   22.6697    9.4183  -31.6759 C   0  0  0  0  0  0  0  0  0  0  0  0
   23.2509    8.5771  -32.5613 C   0  0  0  0  0  0  0  0  0  0  0  0
   23.0915    7.3111  -32.0159 C   0  0  0  0  0  0  0  0  0  0  0  0
   23.4954    6.1403  -32.5233 O   0  0  0  0  0  0  0  0  0  0  0  0
   22.4725    7.2886  -30.8800 N   0  0  0  0  0  0  0  0  0  0  0  0
   22.2101    8.6308  -30.6597 N   0  0  0  0  0  0  0  0  0  0  0  0
   21.7173   11.2138  -31.2373 H   0  0  0  0  0  0  0  0  0  0  0  0
   22.6765   11.2218  -32.6645 H   0  0  0  0  0  0  0  0  0  0  0  0
   23.7277    8.8267  -33.4707 H   0  0  0  0  0  0  0  0  0  0  0  0
   23.1894    5.5315  -31.8247 H   0  0  0  0  0  0  0  0  0  0  0  0
   21.7323    8.9949  -29.8181 H   0  0  0  0  0  0  0  0  0  0  0  0
  1  2  1  0
  1  8  1  0
  1  9  1  0
  2  3  2  0
  2  7  1  0
  3  4  1  0
  3 10  1  0
  4  5  1  0
  4  6  2  0
  5 11  1  0
  6  7  1  0
  7 12  1  0
M  END
> <intraLJ>
-0.707    

> <intraEL>
-16.624   

> <intraDihe>
2.009     

> <interLJ>
0.000     

> <interEJ>
0.000     

> <gridLJ>
-3.106    

> <gridEL>
0.000     

> <totalE>
-18.428   

> <LGFE>
-3.106  

> <LE>
-0.444  

> <SMILES>
Nc1cc(O)n[nH]1

> <atom.dprop.GFE>
-0.75 -0.2 -0.23 -0.18 -0.63 -0.48 -0.63 0 0 0 0 0

> <atom.prop.CLASS>
GEND GEHC GEHC GEHC MEOO GENA GEND NCLA NCLA NCLA NCLA NCLA

$$$$
