37_1
     RDKit          3D

 12 11  0  0  1  0  0  0  0  0999 V2000
   21.1232   12.2755  -17.8619 C   0  0  0  0  0  0  0  0  0  0  0  0
   22.1844   11.3434  -18.4686 C   0  0  0  0  0  0  0  0  0  0  0  0
   23.4088   12.1325  -18.5500 O   0  0  0  0  0  0  0  0  0  0  0  0
   21.7388   10.9217  -19.8759 C   0  0  0  0  0  0  0  0  0  0  0  0
   22.2493   11.3029  -20.9230 O   0  0  0  0  0  0  0  0  0  0  0  0
   20.6609   10.1297  -20.0406 O   0  0  0  0  0  0  0  0  0  0  0  0
   20.1860   11.7239  -17.7798 H   0  0  0  0  0  0  0  0  0  0  0  0
   21.0029   13.1447  -18.5095 H   0  0  0  0  0  0  0  0  0  0  0  0
   21.4698   12.5833  -16.8750 H   0  0  0  0  0  0  0  0  0  0  0  0
   22.3208   10.4691  -17.8448 H   0  0  0  0  0  0  0  0  0  0  0  0
   23.3599   12.7240  -19.3248 H   0  0  0  0  0  0  0  0  0  0  0  0
   20.5922   10.0361  -20.9921 H   0  0  0  0  0  0  0  0  0  0  0  0
  1  2  1  0
  1  7  1  0
  1  8  1  0
  1  9  1  0
  2  3  1  0
  2  4  1  0
  2 10  1  0
  3 11  1  0
  4  5  2  0
  4  6  1  0
  6 12  1  0
M  END
> <intraLJ>
-0.232    

> <intraEL>
3.043     

> <intraDihe>
2.576     

> <interLJ>
0.000     

> <interEJ>
0.000     

> <gridLJ>
-2.016    

> <gridEL>
0.000     

> <totalE>
3.371     

> <LGFE>
-2.016  

> <LE>
-0.336  

> <SMILES>
CC(O)C(=O)O

> <atom.dprop.GFE>
-0.48 -0.37 -0.39 0 -0.045 -0.73 0 0 0 0 0 0

> <atom.prop.CLASS>
PRPC PRPC MEOO NCLA GENA MEOO NCLA NCLA NCLA NCLA NCLA NCLA

$$$$
