71_2
     RDKit          3D

 19 19  0  0  0  0  0  0  0  0999 V2000
   -7.5668   11.5011   -8.5857 C   0  0  0  0  0  0  0  0  0  0  0  0
   -6.2107   12.1316   -8.2762 C   0  0  0  0  0  0  0  0  0  0  0  0
   -5.0843   11.5382   -9.0459 N   0  0  0  0  0  0  0  0  0  0  0  0
   -5.0936   10.0479   -9.1638 C   0  0  0  0  0  0  0  0  0  0  0  0
   -5.5823    9.3068   -7.9118 C   0  0  0  0  0  0  0  0  0  0  0  0
   -6.9965    9.1702   -8.0011 O   0  0  0  0  0  0  0  0  0  0  0  0
   -7.8068   10.2903   -7.6705 C   0  0  0  0  0  0  0  0  0  0  0  0
   -7.6501   11.2148   -9.6347 H   0  0  0  0  0  0  0  0  0  0  0  0
   -8.3433   12.2368   -8.3704 H   0  0  0  0  0  0  0  0  0  0  0  0
   -6.0340   11.9935   -7.2050 H   0  0  0  0  0  0  0  0  0  0  0  0
   -6.2574   13.2094   -8.4607 H   0  0  0  0  0  0  0  0  0  0  0  0
   -4.2221   11.8385   -8.6084 H   0  0  0  0  0  0  0  0  0  0  0  0
   -5.0883   11.9134   -9.9878 H   0  0  0  0  0  0  0  0  0  0  0  0
   -4.1027    9.6829   -9.4474 H   0  0  0  0  0  0  0  0  0  0  0  0
   -5.7865    9.7548   -9.9568 H   0  0  0  0  0  0  0  0  0  0  0  0
   -5.2727    9.8054   -6.9923 H   0  0  0  0  0  0  0  0  0  0  0  0
   -5.1514    8.3038   -7.9226 H   0  0  0  0  0  0  0  0  0  0  0  0
   -8.8506    9.9848   -7.7745 H   0  0  0  0  0  0  0  0  0  0  0  0
   -7.6532   10.5676   -6.6256 H   0  0  0  0  0  0  0  0  0  0  0  0
  1  2  1  0
  1  7  1  0
  1  8  1  0
  1  9  1  0
  2  3  1  0
  2 10  1  0
  2 11  1  0
  3  4  1  0
  3 12  1  0
  3 13  1  0
  4  5  1  0
  4 14  1  0
  4 15  1  0
  5  6  1  0
  5 16  1  0
  5 17  1  0
  6  7  1  0
  7 18  1  0
  7 19  1  0
M  CHG  1   3   1
M  END
> <intraLJ>
1.159     

> <intraEL>
4.103     

> <intraDihe>
11.900    

> <interLJ>
0.000     

> <interEJ>
0.000     

> <gridLJ>
-4.250    

> <gridEL>
0.000     

> <totalE>
12.912    

> <LGFE>
-4.250  

> <LE>
-0.607  

> <SMILES>
C1C[NH2+]CCOC1

> <atom.dprop.GFE>
-0.32 -0.39 -1.4 -0.46 -0.44 -0.78 -0.44 0 0 0 0 0 0 0 0 0 0 0 0

> <atom.prop.CLASS>
PRPC PRPC MAMN PRPC PRPC GENA PRPC NCLA NCLA NCLA NCLA NCLA NCLA NCLA NCLA NCLA NCLA NCLA NCLA

$$$$
