11_1
     RDKit          3D

 11 11  0  0  0  0  0  0  0  0999 V2000
  -15.1937   10.5862   -6.8393 O   0  0  0  0  0  0  0  0  0  0  0  0
  -16.1820    9.9428   -6.5488 C   0  0  0  0  0  0  0  0  0  0  0  0
  -16.3647    9.0039   -5.4006 C   0  0  0  0  0  0  0  0  0  0  0  0
  -17.9052    8.9316   -5.3485 C   0  0  0  0  0  0  0  0  0  0  0  0
  -18.3441    9.2499   -6.7111 O   0  0  0  0  0  0  0  0  0  0  0  0
  -17.3069   10.0082   -7.2599 N   0  0  0  0  0  0  0  0  0  0  0  0
  -15.9537    9.4185   -4.4916 H   0  0  0  0  0  0  0  0  0  0  0  0
  -15.9668    8.0417   -5.6854 H   0  0  0  0  0  0  0  0  0  0  0  0
  -18.2924    9.6873   -4.6625 H   0  0  0  0  0  0  0  0  0  0  0  0
  -18.2488    7.9399   -5.0493 H   0  0  0  0  0  0  0  0  0  0  0  0
  -17.4071   10.5828   -8.1103 H   0  0  0  0  0  0  0  0  0  0  0  0
  1  2  2  0
  2  3  1  0
  2  6  1  0
  3  4  1  0
  3  7  1  0
  3  8  1  0
  4  5  1  0
  4  9  1  0
  4 10  1  0
  5  6  1  0
  6 11  1  0
M  END
> <intraLJ>
-0.418    

> <intraEL>
-2.154    

> <intraDihe>
5.561     

> <interLJ>
0.000     

> <interEJ>
0.000     

> <gridLJ>
-3.399    

> <gridEL>
0.000     

> <totalE>
-0.409    

> <LGFE>
-3.399  

> <LE>
-0.566  

> <SMILES>
O=C1CCON1

> <atom.dprop.GFE>
-1.3 -0.27 -0.24 -0.24 -0.69 -0.62 0 0 0 0 0

> <atom.prop.CLASS>
GENA GEHC PRPC PRPC GENA GEND NCLA NCLA NCLA NCLA NCLA

$$$$
