35_3
     RDKit          3D

 10 10  0  0  0  0  0  0  0  0999 V2000
   -6.4728   10.2795    5.0684 N   0  0  0  0  0  0  0  0  0  0  0  0
   -5.6672   10.9004    6.0018 C   0  0  0  0  0  0  0  0  0  0  0  0
   -4.4263   10.6354    6.1826 N   0  0  0  0  0  0  0  0  0  0  0  0
   -4.0825   11.4824    7.1840 C   0  0  0  0  0  0  0  0  0  0  0  0
   -5.0367   12.2457    7.6224 N   0  0  0  0  0  0  0  0  0  0  0  0
   -6.0648   11.8652    6.8442 N   0  0  0  0  0  0  0  0  0  0  0  0
   -7.4584   10.1523    5.3290 H   0  0  0  0  0  0  0  0  0  0  0  0
   -6.0221    9.4334    4.6879 H   0  0  0  0  0  0  0  0  0  0  0  0
   -3.0988   11.5212    7.5847 H   0  0  0  0  0  0  0  0  0  0  0  0
   -7.0171   12.2618    6.8753 H   0  0  0  0  0  0  0  0  0  0  0  0
  1  2  1  0
  1  7  1  0
  1  8  1  0
  2  3  2  0
  2  6  1  0
  3  4  1  0
  4  5  2  0
  4  9  1  0
  5  6  1  0
  6 10  1  0
M  END
> <intraLJ>
-0.206    

> <intraEL>
-6.323    

> <intraDihe>
2.580     

> <interLJ>
0.000     

> <interEJ>
0.000     

> <gridLJ>
-2.966    

> <gridEL>
0.000     

> <totalE>
-6.915    

> <LGFE>
-2.966  

> <LE>
-0.494  

> <SMILES>
Nc1ncn[nH]1

> <atom.dprop.GFE>
-0.7 -0.23 -1.1 -0.23 -0.089 -0.58 0 0 0 0

> <atom.prop.CLASS>
GEND GEHC GENA GEHC GENA GEND NCLA NCLA NCLA NCLA

$$$$
