6
     RDKit          3D

 10 10  0  0  0  0  0  0  0  0999 V2000
   11.0493   -3.1989    7.7928 N   0  0  0  0  0  0  0  0  0  0  0  0
   11.5886   -4.0105    6.8127 C   0  0  0  0  0  0  0  0  0  0  0  0
   12.8484   -3.8941    6.2445 C   0  0  0  0  0  0  0  0  0  0  0  0
   12.9198   -4.8973    5.3601 C   0  0  0  0  0  0  0  0  0  0  0  0
   11.7602   -5.5725    5.4074 O   0  0  0  0  0  0  0  0  0  0  0  0
   10.9352   -5.0026    6.3246 N   0  0  0  0  0  0  0  0  0  0  0  0
   10.2666   -3.6831    8.2516 H   0  0  0  0  0  0  0  0  0  0  0  0
   11.7589   -2.8505    8.4475 H   0  0  0  0  0  0  0  0  0  0  0  0
   13.5869   -3.1683    6.4567 H   0  0  0  0  0  0  0  0  0  0  0  0
   13.6951   -5.1909    4.6993 H   0  0  0  0  0  0  0  0  0  0  0  0
  1  2  1  0
  1  7  1  0
  1  8  1  0
  2  3  1  0
  2  6  2  0
  3  4  2  0
  3  9  1  0
  4  5  1  0
  4 10  1  0
  5  6  1  0
M  END
> <intraLJ>
-0.275    

> <intraEL>
-7.962    

> <intraDihe>
1.578     

> <interLJ>
0.000     

> <interEJ>
0.000     

> <gridLJ>
-2.159    

> <gridEL>
0.000     

> <totalE>
-8.819    

> <LGFE>
-2.159  

> <LE>
-0.360  

> <SMILES>
Nc1ccon1

> <atom.dprop.GFE>
-0.36 -0.21 -0.14 -0.11 -0.67 -0.67 0 0 0 0

> <atom.prop.CLASS>
GEND GEHC GEHC GEHC GENA GENA NCLA NCLA NCLA NCLA

$$$$
