42_1
     RDKit          3D

 17 16  0  0  1  0  0  0  0  0999 V2000
    1.4634   12.8095   11.7246 C   0  0  0  0  0  0  0  0  0  0  0  0
    0.4194   12.4067   10.7864 N   0  0  0  0  0  0  0  0  0  0  0  0
    0.1648   13.0762    9.6544 C   0  0  0  0  0  0  0  0  0  0  0  0
    0.8092   14.0775    9.3507 O   0  0  0  0  0  0  0  0  0  0  0  0
   -0.9671   12.5419    8.7236 C   0  0  0  0  0  0  0  0  0  0  0  0
   -1.6665   11.3305    9.3406 C   0  0  0  0  0  0  0  0  0  0  0  0
   -0.5055   12.1508    7.3685 N   0  0  0  0  0  0  0  0  0  0  0  0
    1.4978   12.1233   12.5719 H   0  0  0  0  0  0  0  0  0  0  0  0
    1.2654   13.8195   12.0883 H   0  0  0  0  0  0  0  0  0  0  0  0
    2.4331   12.8063   11.2216 H   0  0  0  0  0  0  0  0  0  0  0  0
   -0.1244   11.5872   10.9980 H   0  0  0  0  0  0  0  0  0  0  0  0
   -1.7077   13.3393    8.6425 H   0  0  0  0  0  0  0  0  0  0  0  0
   -0.9494   10.5176    9.4611 H   0  0  0  0  0  0  0  0  0  0  0  0
   -2.4725   11.0036    8.6829 H   0  0  0  0  0  0  0  0  0  0  0  0
   -2.0803   11.5937   10.3133 H   0  0  0  0  0  0  0  0  0  0  0  0
    0.2004   11.4364    7.4905 H   0  0  0  0  0  0  0  0  0  0  0  0
   -0.0250   12.9389    6.9558 H   0  0  0  0  0  0  0  0  0  0  0  0
  1  2  1  0
  1  8  1  0
  1  9  1  0
  1 10  1  0
  2  3  1  0
  2 11  1  0
  3  4  2  0
  3  5  1  0
  5  6  1  0
  5  7  1  0
  5 12  1  0
  6 13  1  0
  6 14  1  0
  6 15  1  0
  7 16  1  0
  7 17  1  0
M  END
> <intraLJ>
0.646     

> <intraEL>
6.392     

> <intraDihe>
1.058     

> <interLJ>
0.000     

> <interEJ>
0.000     

> <gridLJ>
-2.194    

> <gridEL>
0.000     

> <totalE>
5.902     

> <LGFE>
-2.194  

> <LE>
-0.313  

> <SMILES>
CNC(=O)C(C)N

> <atom.dprop.GFE>
-0.11 -0.15 0 -0.48 -0.37 -0.3 -0.79 0 0 0 0 0 0 0 0 0 0

> <atom.prop.CLASS>
PRPC GEND NCLA GENA PRPC PRPC GEND NCLA NCLA NCLA NCLA NCLA NCLA NCLA NCLA NCLA NCLA

$$$$
