61_2
     RDKit          3D

 17 17  0  0  0  0  0  0  0  0999 V2000
  -14.1285    9.0942   -1.4151 C   0  0  0  0  0  0  0  0  0  0  0  0
  -14.8036    9.3481   -0.0499 C   0  0  0  0  0  0  0  0  0  0  0  0
  -15.6838    8.2106    0.3569 N   0  0  0  0  0  0  0  0  0  0  0  0
  -16.7050    7.9486   -0.7042 C   0  0  0  0  0  0  0  0  0  0  0  0
  -16.0520    7.6794   -2.0771 C   0  0  0  0  0  0  0  0  0  0  0  0
  -15.1323    8.7806   -2.4666 N   0  0  0  0  0  0  0  0  0  0  0  0
  -13.4262    8.2631   -1.3153 H   0  0  0  0  0  0  0  0  0  0  0  0
  -13.5618    9.9830   -1.7035 H   0  0  0  0  0  0  0  0  0  0  0  0
  -15.4012   10.2591   -0.1445 H   0  0  0  0  0  0  0  0  0  0  0  0
  -14.0292    9.5253    0.7016 H   0  0  0  0  0  0  0  0  0  0  0  0
  -16.1404    8.4209    1.2351 H   0  0  0  0  0  0  0  0  0  0  0  0
  -15.1140    7.3835    0.4696 H   0  0  0  0  0  0  0  0  0  0  0  0
  -17.3513    8.8227   -0.8142 H   0  0  0  0  0  0  0  0  0  0  0  0
  -17.3302    7.0937   -0.4353 H   0  0  0  0  0  0  0  0  0  0  0  0
  -16.8376    7.5755   -2.8300 H   0  0  0  0  0  0  0  0  0  0  0  0
  -15.5002    6.7376   -2.0297 H   0  0  0  0  0  0  0  0  0  0  0  0
  -14.6896    8.6018   -3.3678 H   0  0  0  0  0  0  0  0  0  0  0  0
  1  2  1  0
  1  6  1  0
  1  7  1  0
  1  8  1  0
  2  3  1  0
  2  9  1  0
  2 10  1  0
  3  4  1  0
  3 11  1  0
  3 12  1  0
  4  5  1  0
  4 13  1  0
  4 14  1  0
  5  6  1  0
  5 15  1  0
  5 16  1  0
  6 17  1  0
M  CHG  1   3   1
M  END
> <intraLJ>
1.222     

> <intraEL>
7.977     

> <intraDihe>
5.373     

> <interLJ>
0.000     

> <interEJ>
0.000     

> <gridLJ>
-2.136    

> <gridEL>
0.000     

> <totalE>
12.437    

> <LGFE>
-2.136  

> <LE>
-0.356  

> <SMILES>
C1C[NH2+]CCN1

> <atom.dprop.GFE>
-0.19 -0.0027 0.48 -0.47 -0.57 -1.4 0 0 0 0 0 0 0 0 0 0 0

> <atom.prop.CLASS>
PRPC PRPC MAMN PRPC PRPC GEND NCLA NCLA NCLA NCLA NCLA NCLA NCLA NCLA NCLA NCLA NCLA

$$$$
