14_2
     RDKit          3D

 19 19  0  0  1  0  0  0  0  0999 V2000
  -16.5530  -22.0103   12.9885 C   0  0  0  0  0  0  0  0  0  0  0  0
  -15.8521  -20.7549   12.6538 N   0  0  0  0  0  0  0  0  0  0  0  0
  -15.1579  -20.2140   13.8292 C   0  0  0  0  0  0  0  0  0  0  0  0
  -14.0628  -19.3174   13.2188 C   0  0  0  0  0  0  0  0  0  0  0  0
  -14.0828  -19.6421   11.7224 C   0  0  0  0  0  0  0  0  0  0  0  0
  -14.9287  -18.7002   11.0792 O   0  0  0  0  0  0  0  0  0  0  0  0
  -14.7874  -21.0029   11.6765 C   0  0  0  0  0  0  0  0  0  0  0  0
  -17.3134  -21.7877   13.7278 H   0  0  0  0  0  0  0  0  0  0  0  0
  -15.8320  -22.7181   13.3816 H   0  0  0  0  0  0  0  0  0  0  0  0
  -17.0093  -22.3937   12.0824 H   0  0  0  0  0  0  0  0  0  0  0  0
  -16.4632  -20.0391   12.2587 H   0  0  0  0  0  0  0  0  0  0  0  0
  -15.8282  -19.6172   14.4387 H   0  0  0  0  0  0  0  0  0  0  0  0
  -14.6793  -21.0138   14.3839 H   0  0  0  0  0  0  0  0  0  0  0  0
  -13.0949  -19.5719   13.6541 H   0  0  0  0  0  0  0  0  0  0  0  0
  -14.2826  -18.2647   13.3971 H   0  0  0  0  0  0  0  0  0  0  0  0
  -13.0822  -19.6420   11.2823 H   0  0  0  0  0  0  0  0  0  0  0  0
  -14.4403  -17.8890   10.8931 H   0  0  0  0  0  0  0  0  0  0  0  0
  -14.1095  -21.7719   12.0275 H   0  0  0  0  0  0  0  0  0  0  0  0
  -15.1866  -21.1752   10.6832 H   0  0  0  0  0  0  0  0  0  0  0  0
  1  2  1  0
  1  8  1  0
  1  9  1  0
  1 10  1  0
  2  3  1  0
  2  7  1  0
  2 11  1  0
  3  4  1  0
  3 12  1  0
  3 13  1  0
  4  5  1  0
  4 14  1  0
  4 15  1  0
  5  6  1  0
  5  7  1  0
  5 16  1  0
  6 17  1  0
  7 18  1  0
  7 19  1  0
M  CHG  1   2   1
M  END
> <intraLJ>
3.793     

> <intraEL>
3.185     

> <intraDihe>
12.263    

> <interLJ>
0.000     

> <interEJ>
0.000     

> <gridLJ>
-2.980    

> <gridEL>
0.000     

> <totalE>
16.260    

> <LGFE>
-2.980  

> <LE>
-0.426  

> <SMILES>
C[NH+]1CCC(O)C1

> <atom.dprop.GFE>
-0.091 -2 -0.057 -0.04 -0.083 -0.57 -0.14 0 0 0 0 0 0 0 0 0 0 0 0

> <atom.prop.CLASS>
PRPC MAMN PRPC PRPC PRPC MEOO PRPC NCLA NCLA NCLA NCLA NCLA NCLA NCLA NCLA NCLA NCLA NCLA NCLA

$$$$
