50_1
     RDKit          3D

 12 11  0  0  1  0  0  0  0  0999 V2000
  -39.1652    5.3823   21.1366 C   0  0  0  0  0  0  0  0  0  0  0  0
  -39.1712    6.3183   19.9288 C   0  0  0  0  0  0  0  0  0  0  0  0
  -38.4875    7.5108   20.3473 N   0  0  0  0  0  0  0  0  0  0  0  0
  -40.5624    6.7439   19.6740 C   0  0  0  0  0  0  0  0  0  0  0  0
  -41.6851    7.0873   19.4677 C   0  0  0  0  0  0  0  0  0  0  0  0
  -39.7172    4.4795   20.8729 H   0  0  0  0  0  0  0  0  0  0  0  0
  -39.6323    5.8795   21.9881 H   0  0  0  0  0  0  0  0  0  0  0  0
  -38.1283    5.1357   21.3633 H   0  0  0  0  0  0  0  0  0  0  0  0
  -38.7197    5.8624   19.0555 H   0  0  0  0  0  0  0  0  0  0  0  0
  -38.9934    7.8674   21.1441 H   0  0  0  0  0  0  0  0  0  0  0  0
  -38.5855    8.1827   19.6011 H   0  0  0  0  0  0  0  0  0  0  0  0
  -42.6620    7.3853   19.2891 H   0  0  0  0  0  0  0  0  0  0  0  0
  1  2  1  0
  1  6  1  0
  1  7  1  0
  1  8  1  0
  2  3  1  0
  2  4  1  0
  2  9  1  0
  3 10  1  0
  3 11  1  0
  4  5  3  0
  5 12  1  0
M  END
> <intraLJ>
0.882     

> <intraEL>
-1.894    

> <intraDihe>
0.827     

> <interLJ>
0.000     

> <interEJ>
0.000     

> <gridLJ>
-2.956    

> <gridEL>
0.000     

> <totalE>
-3.140    

> <LGFE>
-2.956  

> <LE>
-0.591  

> <SMILES>
C#CC(C)N

> <atom.dprop.GFE>
-0.56 -0.61 -0.84 -0.53 -0.42 0 0 0 0 0 0 0

> <atom.prop.CLASS>
PRPC PRPC GEND PRPC PRPC NCLA NCLA NCLA NCLA NCLA NCLA NCLA

$$$$
