58
     RDKit          3D

 12 12  0  0  0  0  0  0  0  0999 V2000
  -30.7805   -9.2597   22.9660 O   0  0  0  0  0  0  0  0  0  0  0  0
  -30.2917   -9.3149   24.0781 C   0  0  0  0  0  0  0  0  0  0  0  0
  -29.0825   -9.8036   24.3733 N   0  0  0  0  0  0  0  0  0  0  0  0
  -28.8653   -9.8866   25.8113 C   0  0  0  0  0  0  0  0  0  0  0  0
  -29.9614   -8.9408   26.3397 C   0  0  0  0  0  0  0  0  0  0  0  0
  -30.8749   -8.8970   25.2064 N   0  0  0  0  0  0  0  0  0  0  0  0
  -28.6519  -10.4249   23.6782 H   0  0  0  0  0  0  0  0  0  0  0  0
  -27.8717   -9.5384   26.0978 H   0  0  0  0  0  0  0  0  0  0  0  0
  -29.0466  -10.9030   26.1627 H   0  0  0  0  0  0  0  0  0  0  0  0
  -29.5428   -7.9502   26.5267 H   0  0  0  0  0  0  0  0  0  0  0  0
  -30.4349   -9.3475   27.2345 H   0  0  0  0  0  0  0  0  0  0  0  0
  -31.6543   -8.2371   25.1071 H   0  0  0  0  0  0  0  0  0  0  0  0
  1  2  2  0
  2  3  1  0
  2  6  1  0
  3  4  1  0
  3  7  1  0
  4  5  1  0
  4  8  1  0
  4  9  1  0
  5  6  1  0
  5 10  1  0
  5 11  1  0
  6 12  1  0
M  END
> <intraLJ>
-0.226    

> <intraEL>
-6.154    

> <intraDihe>
4.218     

> <interLJ>
0.000     

> <interEJ>
0.000     

> <gridLJ>
-3.378    

> <gridEL>
0.000     

> <totalE>
-5.539    

> <LGFE>
-3.378  

> <LE>
-0.563  

> <SMILES>
O=C1NCCN1

> <atom.dprop.GFE>
-0.85 -0.16 -0.69 -0.47 -0.45 -0.77 0 0 0 0 0 0

> <atom.prop.CLASS>
GENA GEHC GEND PRPC PRPC GEND NCLA NCLA NCLA NCLA NCLA NCLA

$$$$
