35_3
     RDKit          3D

 10 10  0  0  0  0  0  0  0  0999 V2000
   21.8566   14.9750   -5.6182 N   0  0  0  0  0  0  0  0  0  0  0  0
   20.6030   14.9051   -5.0442 C   0  0  0  0  0  0  0  0  0  0  0  0
   19.5823   15.5697   -5.4433 N   0  0  0  0  0  0  0  0  0  0  0  0
   18.6122   15.1728   -4.5832 C   0  0  0  0  0  0  0  0  0  0  0  0
   18.9795   14.3084   -3.6871 N   0  0  0  0  0  0  0  0  0  0  0  0
   20.2762   14.1343   -3.9966 N   0  0  0  0  0  0  0  0  0  0  0  0
   22.6562   14.8662   -4.9823 H   0  0  0  0  0  0  0  0  0  0  0  0
   21.9309   15.7796   -6.2592 H   0  0  0  0  0  0  0  0  0  0  0  0
   17.6172   15.5426   -4.6369 H   0  0  0  0  0  0  0  0  0  0  0  0
   20.9255   13.4941   -3.5133 H   0  0  0  0  0  0  0  0  0  0  0  0
  1  2  1  0
  1  7  1  0
  1  8  1  0
  2  3  2  0
  2  6  1  0
  3  4  1  0
  4  5  2  0
  4  9  1  0
  5  6  1  0
  6 10  1  0
M  END
> <intraLJ>
-0.206    

> <intraEL>
-6.323    

> <intraDihe>
2.580     

> <interLJ>
0.000     

> <interEJ>
0.000     

> <gridLJ>
-3.301    

> <gridEL>
0.000     

> <totalE>
-7.250    

> <LGFE>
-3.301  

> <LE>
-0.550  

> <SMILES>
Nc1ncn[nH]1

> <atom.dprop.GFE>
-0.49 -0.28 -1 -0.11 -0.89 -0.47 0 0 0 0

> <atom.prop.CLASS>
GEND GEHC GENA GEHC GENA GEND NCLA NCLA NCLA NCLA

$$$$
