48_2
     RDKit          3D

 18 17  0  0  1  0  0  0  0  0999 V2000
   -9.6358    9.1369    7.3765 C   0  0  0  0  0  0  0  0  0  0  0  0
   -9.1330    8.1472    8.4437 C   0  0  0  0  0  0  0  0  0  0  0  0
  -10.0472    6.9269    8.6452 C   0  0  0  0  0  0  0  0  0  0  0  0
  -10.0944    6.1295    7.3907 N   0  0  0  0  0  0  0  0  0  0  0  0
  -11.4755    7.3592    9.0932 C   0  0  0  0  0  0  0  0  0  0  0  0
  -12.4386    6.9083    8.4936 O   0  0  0  0  0  0  0  0  0  0  0  0
  -11.6733    8.1766   10.1192 N   0  0  0  0  0  0  0  0  0  0  0  0
   -8.8807    9.9127    7.2238 H   0  0  0  0  0  0  0  0  0  0  0  0
  -10.5565    9.6295    7.6911 H   0  0  0  0  0  0  0  0  0  0  0  0
   -9.7950    8.6285    6.4233 H   0  0  0  0  0  0  0  0  0  0  0  0
   -9.0102    8.6734    9.3928 H   0  0  0  0  0  0  0  0  0  0  0  0
   -8.1465    7.7941    8.1368 H   0  0  0  0  0  0  0  0  0  0  0  0
   -9.6256    6.3181    9.4476 H   0  0  0  0  0  0  0  0  0  0  0  0
  -10.6268    6.6655    6.7151 H   0  0  0  0  0  0  0  0  0  0  0  0
  -10.6241    5.2839    7.5509 H   0  0  0  0  0  0  0  0  0  0  0  0
   -9.1681    5.9315    7.0479 H   0  0  0  0  0  0  0  0  0  0  0  0
  -12.6361    8.3953   10.3394 H   0  0  0  0  0  0  0  0  0  0  0  0
  -10.9255    8.5866   10.6564 H   0  0  0  0  0  0  0  0  0  0  0  0
  1  2  1  0
  1  8  1  0
  1  9  1  0
  1 10  1  0
  2  3  1  0
  2 11  1  0
  2 12  1  0
  3  4  1  0
  3  5  1  0
  3 13  1  0
  4 14  1  0
  4 15  1  0
  4 16  1  0
  5  6  2  0
  5  7  1  0
  7 17  1  0
  7 18  1  0
M  CHG  1   4   1
M  END
> <intraLJ>
0.358     

> <intraEL>
1.542     

> <intraDihe>
0.669     

> <interLJ>
0.000     

> <interEJ>
0.000     

> <gridLJ>
-2.273    

> <gridEL>
0.000     

> <totalE>
0.295     

> <LGFE>
-2.273  

> <LE>
-0.325  

> <SMILES>
CCC([NH3+])C(N)=O

> <atom.dprop.GFE>
-0.088 -0.045 0.17 -1.9 0 -0.31 -0.087 0 0 0 0 0 0 0 0 0 0 0

> <atom.prop.CLASS>
PRPC PRPC PRPC MAMN NCLA GENA GEND NCLA NCLA NCLA NCLA NCLA NCLA NCLA NCLA NCLA NCLA NCLA

$$$$
