36_1
     RDKit          3D

 13 13  0  0  0  0  0  0  0  0999 V2000
  -25.1872  -14.3686   20.3806 N   0  0  0  0  0  0  0  0  0  0  0  0
  -25.9928  -14.5922   21.5756 C   0  0  0  0  0  0  0  0  0  0  0  0
  -25.0009  -15.0417   22.6315 C   0  0  0  0  0  0  0  0  0  0  0  0
  -24.8585  -16.2875   23.1143 C   0  0  0  0  0  0  0  0  0  0  0  0
  -23.8945  -16.2719   24.0191 O   0  0  0  0  0  0  0  0  0  0  0  0
  -23.4726  -14.9972   24.0596 C   0  0  0  0  0  0  0  0  0  0  0  0
  -24.1031  -14.2214   23.2501 N   0  0  0  0  0  0  0  0  0  0  0  0
  -24.6968  -15.2405   20.2155 H   0  0  0  0  0  0  0  0  0  0  0  0
  -24.4787  -13.6855   20.6068 H   0  0  0  0  0  0  0  0  0  0  0  0
  -26.7007  -15.3914   21.3979 H   0  0  0  0  0  0  0  0  0  0  0  0
  -26.4645  -13.6676   21.8849 H   0  0  0  0  0  0  0  0  0  0  0  0
  -25.3758  -17.1817   22.8794 H   0  0  0  0  0  0  0  0  0  0  0  0
  -22.6889  -14.7338   24.7259 H   0  0  0  0  0  0  0  0  0  0  0  0
  1  2  1  0
  1  8  1  0
  1  9  1  0
  2  3  1  0
  2 10  1  0
  2 11  1  0
  3  4  2  0
  3  7  1  0
  4  5  1  0
  4 12  1  0
  5  6  1  0
  6  7  2  0
  6 13  1  0
M  END
> <intraLJ>
0.945     

> <intraEL>
3.213     

> <intraDihe>
2.704     

> <interLJ>
0.000     

> <interEJ>
0.000     

> <gridLJ>
-2.372    

> <gridEL>
0.000     

> <totalE>
4.490     

> <LGFE>
-2.372  

> <LE>
-0.339  

> <SMILES>
NCc1cocn1

> <atom.dprop.GFE>
-0.57 -0.29 -0.19 -0.13 -0.46 -0.14 -0.59 0 0 0 0 0 0

> <atom.prop.CLASS>
GEND PRPC GEHC GEHC GENA GEHC GENA NCLA NCLA NCLA NCLA NCLA NCLA

$$$$
