68_1
     RDKit          3D

 17 16  0  0  1  0  0  0  0  0999 V2000
  -16.4764    4.1381    7.3231 C   0  0  0  0  0  0  0  0  0  0  0  0
  -17.0145    4.5532    5.9590 C   0  0  0  0  0  0  0  0  0  0  0  0
  -15.8749    4.7175    5.0464 N   0  0  0  0  0  0  0  0  0  0  0  0
  -17.8277    5.8457    6.0787 C   0  0  0  0  0  0  0  0  0  0  0  0
  -19.0614    5.6595    6.9460 C   0  0  0  0  0  0  0  0  0  0  0  0
  -19.1222    6.1264    8.0695 O   0  0  0  0  0  0  0  0  0  0  0  0
  -20.0803    4.9692    6.4703 N   0  0  0  0  0  0  0  0  0  0  0  0
  -17.3040    3.9581    8.0105 H   0  0  0  0  0  0  0  0  0  0  0  0
  -15.8294    4.9168    7.7279 H   0  0  0  0  0  0  0  0  0  0  0  0
  -15.9019    3.2182    7.2171 H   0  0  0  0  0  0  0  0  0  0  0  0
  -17.6684    3.7592    5.5856 H   0  0  0  0  0  0  0  0  0  0  0  0
  -15.2367    5.4187    5.3918 H   0  0  0  0  0  0  0  0  0  0  0  0
  -16.2010    4.9475    4.1158 H   0  0  0  0  0  0  0  0  0  0  0  0
  -18.1196    6.1959    5.0901 H   0  0  0  0  0  0  0  0  0  0  0  0
  -17.2124    6.6121    6.5477 H   0  0  0  0  0  0  0  0  0  0  0  0
  -20.8786    4.8728    7.0757 H   0  0  0  0  0  0  0  0  0  0  0  0
  -20.0531    4.5790    5.5457 H   0  0  0  0  0  0  0  0  0  0  0  0
  1  2  1  0
  1  8  1  0
  1  9  1  0
  1 10  1  0
  2  3  1  0
  2  4  1  0
  2 11  1  0
  3 12  1  0
  3 13  1  0
  4  5  1  0
  4 14  1  0
  4 15  1  0
  5  6  2  0
  5  7  1  0
  7 16  1  0
  7 17  1  0
M  END
> <intraLJ>
1.189     

> <intraEL>
-12.183   

> <intraDihe>
0.921     

> <interLJ>
0.000     

> <interEJ>
0.000     

> <gridLJ>
-4.708    

> <gridEL>
0.000     

> <totalE>
-14.781   

> <LGFE>
-4.708  

> <LE>
-0.673  

> <SMILES>
CC(N)CC(N)=O

> <atom.dprop.GFE>
-0.58 -0.53 -0.59 -0.29 0 -1.8 -0.92 0 0 0 0 0 0 0 0 0 0

> <atom.prop.CLASS>
PRPC PRPC GEND PRPC NCLA GENA GEND NCLA NCLA NCLA NCLA NCLA NCLA NCLA NCLA NCLA NCLA

$$$$
