60_2
     RDKit          3D

 14 14  0  0  0  0  0  0  0  0999 V2000
   21.6303   -2.6936  -10.1152 N   0  0  0  0  0  0  0  0  0  0  0  0
   20.9657   -2.6482  -11.2807 C   0  0  0  0  0  0  0  0  0  0  0  0
   19.7415   -3.3148  -11.4127 C   0  0  0  0  0  0  0  0  0  0  0  0
   19.0733   -3.2580  -12.6162 C   0  0  0  0  0  0  0  0  0  0  0  0
   19.6133   -2.5565  -13.6539 N   0  0  0  0  0  0  0  0  0  0  0  0
   20.8046   -1.8977  -13.5495 C   0  0  0  0  0  0  0  0  0  0  0  0
   21.4992   -1.9340  -12.3604 C   0  0  0  0  0  0  0  0  0  0  0  0
   22.5368   -2.2111   -9.9892 H   0  0  0  0  0  0  0  0  0  0  0  0
   21.2602   -3.2150   -9.3003 H   0  0  0  0  0  0  0  0  0  0  0  0
   19.3442   -3.8534  -10.5908 H   0  0  0  0  0  0  0  0  0  0  0  0
   18.1403   -3.7299  -12.8146 H   0  0  0  0  0  0  0  0  0  0  0  0
   19.0999   -2.5210  -14.5552 H   0  0  0  0  0  0  0  0  0  0  0  0
   21.1251   -1.3845  -14.4241 H   0  0  0  0  0  0  0  0  0  0  0  0
   22.4260   -1.4317  -12.2533 H   0  0  0  0  0  0  0  0  0  0  0  0
  1  2  1  0
  1  8  1  0
  1  9  1  0
  2  3  2  0
  2  7  1  0
  3  4  1  0
  3 10  1  0
  4  5  2  0
  4 11  1  0
  5  6  1  0
  5 12  1  0
  6  7  2  0
  6 13  1  0
  7 14  1  0
M  CHG  1   5   1
M  END
> <intraLJ>
8.489     

> <intraEL>
2.031     

> <intraDihe>
0.000     

> <interLJ>
0.000     

> <interEJ>
0.000     

> <gridLJ>
-2.174    

> <gridEL>
0.000     

> <totalE>
8.346     

> <LGFE>
-2.174  

> <LE>
-0.311  

> <SMILES>
Nc1cc[nH+]cc1

> <atom.dprop.GFE>
-0.43 -0.12 -0.15 -0.18 -1 -0.12 -0.13 0 0 0 0 0 0 0

> <atom.prop.CLASS>
GEND BENC BENC BENC MAMN BENC BENC NCLA NCLA NCLA NCLA NCLA NCLA NCLA

$$$$
