13
     RDKit          3D

 13 12  0  0  0  0  0  0  0  0999 V2000
  -43.5577    9.6304   25.7253 C   0  0  0  0  0  0  0  0  0  0  0  0
  -43.2315    9.2624   24.2620 C   0  0  0  0  0  0  0  0  0  0  0  0
  -41.9499    8.4555   24.2678 C   0  0  0  0  0  0  0  0  0  0  0  0
  -41.9311    7.2380   24.1796 O   0  0  0  0  0  0  0  0  0  0  0  0
  -40.7707    9.1227   24.3537 N   0  0  0  0  0  0  0  0  0  0  0  0
  -39.5539    8.4109   24.3493 O   0  0  0  0  0  0  0  0  0  0  0  0
  -44.4665   10.2332   25.7327 H   0  0  0  0  0  0  0  0  0  0  0  0
  -42.7241   10.2057   26.1338 H   0  0  0  0  0  0  0  0  0  0  0  0
  -43.7066    8.7167   26.3042 H   0  0  0  0  0  0  0  0  0  0  0  0
  -43.0562   10.1704   23.7013 H   0  0  0  0  0  0  0  0  0  0  0  0
  -44.0335    8.6627   23.8541 H   0  0  0  0  0  0  0  0  0  0  0  0
  -40.7256   10.1527   24.4152 H   0  0  0  0  0  0  0  0  0  0  0  0
  -39.8212    7.4624   24.2706 H   0  0  0  0  0  0  0  0  0  0  0  0
  1  2  1  0
  1  7  1  0
  1  8  1  0
  1  9  1  0
  2  3  1  0
  2 10  1  0
  2 11  1  0
  3  4  2  0
  3  5  1  0
  5  6  1  0
  5 12  1  0
  6 13  1  0
M  END
> <intraLJ>
0.065     

> <intraEL>
2.382     

> <intraDihe>
5.923     

> <interLJ>
0.000     

> <interEJ>
0.000     

> <gridLJ>
-2.607    

> <gridEL>
0.000     

> <totalE>
5.763     

> <LGFE>
-2.607  

> <LE>
-0.434  

> <SMILES>
CCC(=O)NO

> <atom.dprop.GFE>
-0.17 -0.21 0 -0.52 -0.58 -1.1 0 0 0 0 0 0 0

> <atom.prop.CLASS>
PRPC PRPC NCLA GENA GEND MEOO NCLA NCLA NCLA NCLA NCLA NCLA NCLA

$$$$
