68_1
     RDKit          3D

 17 16  0  0  1  0  0  0  0  0999 V2000
  -39.2007    0.0099   28.1432 C   0  0  0  0  0  0  0  0  0  0  0  0
  -40.2739    0.0622   27.0625 C   0  0  0  0  0  0  0  0  0  0  0  0
  -41.2014    1.1540   27.3890 N   0  0  0  0  0  0  0  0  0  0  0  0
  -41.0015   -1.2824   26.9697 C   0  0  0  0  0  0  0  0  0  0  0  0
  -40.0707   -2.3999   26.5296 C   0  0  0  0  0  0  0  0  0  0  0  0
  -39.5041   -2.3649   25.4517 O   0  0  0  0  0  0  0  0  0  0  0  0
  -39.8836   -3.4307   27.3318 N   0  0  0  0  0  0  0  0  0  0  0  0
  -38.4662   -0.7594   27.9013 H   0  0  0  0  0  0  0  0  0  0  0  0
  -39.6498   -0.2073   29.1128 H   0  0  0  0  0  0  0  0  0  0  0  0
  -38.6952    0.9741   28.1936 H   0  0  0  0  0  0  0  0  0  0  0  0
  -39.7921    0.2689   26.1021 H   0  0  0  0  0  0  0  0  0  0  0  0
  -41.6288    1.0042   28.2907 H   0  0  0  0  0  0  0  0  0  0  0  0
  -41.9020    1.2476   26.6640 H   0  0  0  0  0  0  0  0  0  0  0  0
  -41.8402   -1.2061   26.2799 H   0  0  0  0  0  0  0  0  0  0  0  0
  -41.3873   -1.5480   27.9529 H   0  0  0  0  0  0  0  0  0  0  0  0
  -39.2569   -4.1467   27.0035 H   0  0  0  0  0  0  0  0  0  0  0  0
  -40.3373   -3.4782   28.2261 H   0  0  0  0  0  0  0  0  0  0  0  0
  1  2  1  0
  1  8  1  0
  1  9  1  0
  1 10  1  0
  2  3  1  0
  2  4  1  0
  2 11  1  0
  3 12  1  0
  3 13  1  0
  4  5  1  0
  4 14  1  0
  4 15  1  0
  5  6  2  0
  5  7  1  0
  7 16  1  0
  7 17  1  0
M  END
> <intraLJ>
1.684     

> <intraEL>
-12.196   

> <intraDihe>
0.855     

> <interLJ>
0.000     

> <interEJ>
0.000     

> <gridLJ>
-2.748    

> <gridEL>
0.000     

> <totalE>
-12.405   

> <LGFE>
-2.748  

> <LE>
-0.393  

> <SMILES>
CC(N)CC(N)=O

> <atom.dprop.GFE>
-0.36 -0.41 -0.39 -0.41 0 -0.7 -0.48 0 0 0 0 0 0 0 0 0 0

> <atom.prop.CLASS>
PRPC PRPC GEND PRPC NCLA GENA GEND NCLA NCLA NCLA NCLA NCLA NCLA NCLA NCLA NCLA NCLA

$$$$
