8
     RDKit          3D

  9  9  0  0  0  0  0  0  0  0999 V2000
  -15.0683    6.3020  -17.2580 N   0  0  0  0  0  0  0  0  0  0  0  0
  -15.1048    7.1254  -16.4636 C   0  0  0  0  0  0  0  0  0  0  0  0
  -15.1290    8.1535  -15.4516 C   0  0  0  0  0  0  0  0  0  0  0  0
  -14.2055    8.3083  -14.4203 C   0  0  0  0  0  0  0  0  0  0  0  0
  -14.6111    9.3793  -13.7250 C   0  0  0  0  0  0  0  0  0  0  0  0
  -15.7167    9.8437  -14.3048 O   0  0  0  0  0  0  0  0  0  0  0  0
  -16.0280    9.0873  -15.3631 N   0  0  0  0  0  0  0  0  0  0  0  0
  -13.3569    7.7072  -14.2211 H   0  0  0  0  0  0  0  0  0  0  0  0
  -14.2078    9.8526  -12.8652 H   0  0  0  0  0  0  0  0  0  0  0  0
  1  2  3  0
  2  3  1  0
  3  4  1  0
  3  7  2  0
  4  5  2  0
  4  8  1  0
  5  6  1  0
  5  9  1  0
  6  7  1  0
M  END
> <intraLJ>
-0.818    

> <intraEL>
1.724     

> <intraDihe>
0.000     

> <interLJ>
0.000     

> <interEJ>
0.000     

> <gridLJ>
-3.638    

> <gridEL>
0.000     

> <totalE>
-2.731    

> <LGFE>
-3.638  

> <LE>
-0.520  

> <SMILES>
N#Cc1ccon1

> <atom.dprop.GFE>
-1.1 0 -0.26 -0.23 -0.26 -0.88 -0.96 0 0

> <atom.prop.CLASS>
GENA NCLA GEHC GEHC GEHC GENA GENA NCLA NCLA

$$$$
