61_1
     RDKit          3D

 16 16  0  0  0  0  0  0  0  0999 V2000
   20.8681   15.9608   -3.7551 C   0  0  0  0  0  0  0  0  0  0  0  0
   21.7225   15.1064   -2.7983 C   0  0  0  0  0  0  0  0  0  0  0  0
   22.5664   14.1236   -3.5319 N   0  0  0  0  0  0  0  0  0  0  0  0
   21.7068   13.2856   -4.4104 C   0  0  0  0  0  0  0  0  0  0  0  0
   20.8479   14.1384   -5.3653 C   0  0  0  0  0  0  0  0  0  0  0  0
   20.0062   15.1223   -4.6315 N   0  0  0  0  0  0  0  0  0  0  0  0
   21.5452   16.5566   -4.3703 H   0  0  0  0  0  0  0  0  0  0  0  0
   20.2465   16.6383   -3.1673 H   0  0  0  0  0  0  0  0  0  0  0  0
   21.0470   14.5762   -2.1245 H   0  0  0  0  0  0  0  0  0  0  0  0
   22.3571   15.7645   -2.2040 H   0  0  0  0  0  0  0  0  0  0  0  0
   23.0808   13.5433   -2.8807 H   0  0  0  0  0  0  0  0  0  0  0  0
   21.0316   12.6859   -3.7955 H   0  0  0  0  0  0  0  0  0  0  0  0
   22.3300   12.6105   -4.9997 H   0  0  0  0  0  0  0  0  0  0  0  0
   20.2116   13.4776   -5.9564 H   0  0  0  0  0  0  0  0  0  0  0  0
   21.5221   14.6673   -6.0421 H   0  0  0  0  0  0  0  0  0  0  0  0
   19.4925   15.7021   -5.2821 H   0  0  0  0  0  0  0  0  0  0  0  0
  1  2  1  0
  1  6  1  0
  1  7  1  0
  1  8  1  0
  2  3  1  0
  2  9  1  0
  2 10  1  0
  3  4  1  0
  3 11  1  0
  4  5  1  0
  4 12  1  0
  4 13  1  0
  5  6  1  0
  5 14  1  0
  5 15  1  0
  6 16  1  0
M  END
> <intraLJ>
1.218     

> <intraEL>
5.660     

> <intraDihe>
4.795     

> <interLJ>
0.000     

> <interEJ>
0.000     

> <gridLJ>
-3.093    

> <gridEL>
0.000     

> <totalE>
8.580     

> <LGFE>
-3.093  

> <LE>
-0.515  

> <SMILES>
C1CNCCN1

> <atom.dprop.GFE>
-0.57 -0.46 -0.38 -0.53 -0.68 -0.47 0 0 0 0 0 0 0 0 0 0

> <atom.prop.CLASS>
PRPC PRPC GEND PRPC PRPC GEND NCLA NCLA NCLA NCLA NCLA NCLA NCLA NCLA NCLA NCLA

$$$$
