23_2
     RDKit          3D

 10 10  0  0  0  0  0  0  0  0999 V2000
   13.6412   14.6547  -29.2597 O   0  0  0  0  0  0  0  0  0  0  0  0
   14.4850   15.5791  -29.3439 C   0  0  0  0  0  0  0  0  0  0  0  0
   15.8153   15.2712  -29.3263 N   0  0  0  0  0  0  0  0  0  0  0  0
   16.6938   16.2369  -29.4147 C   0  0  0  0  0  0  0  0  0  0  0  0
   16.2925   17.5592  -29.5246 C   0  0  0  0  0  0  0  0  0  0  0  0
   14.9334   17.8328  -29.5380 C   0  0  0  0  0  0  0  0  0  0  0  0
   14.0511   16.8703  -29.4504 N   0  0  0  0  0  0  0  0  0  0  0  0
   17.7208   15.9830  -29.3999 H   0  0  0  0  0  0  0  0  0  0  0  0
   17.0026   18.3379  -29.5952 H   0  0  0  0  0  0  0  0  0  0  0  0
   14.5823   18.8276  -29.6197 H   0  0  0  0  0  0  0  0  0  0  0  0
  1  2  1  0
  2  3  2  0
  2  7  1  0
  3  4  1  0
  4  5  2  0
  4  8  1  0
  5  6  1  0
  5  9  1  0
  6  7  2  0
  6 10  1  0
M  CHG  1   1  -1
M  END
> <intraLJ>
17.983    

> <intraEL>
-7.943    

> <intraDihe>
0.000     

> <interLJ>
0.000     

> <interEJ>
0.000     

> <gridLJ>
-2.754    

> <gridEL>
0.000     

> <totalE>
7.287     

> <LGFE>
-2.754  

> <LE>
-0.393  

> <SMILES>
[O-]c1ncccn1

> <atom.dprop.GFE>
0 -0.41 -1.1 -0.11 -0.065 -0.086 -0.96 0 0 0

> <atom.prop.CLASS>
NCLA GEHC GENA BENC BENC BENC GENA NCLA NCLA NCLA

$$$$
