68_2
     RDKit          3D

 18 17  0  0  1  0  0  0  0  0999 V2000
    8.1121   -4.2161  -10.6740 C   0  0  0  0  0  0  0  0  0  0  0  0
    8.9326   -5.3436  -10.0554 C   0  0  0  0  0  0  0  0  0  0  0  0
    9.0299   -5.1279   -8.6047 N   0  0  0  0  0  0  0  0  0  0  0  0
   10.3180   -5.4276  -10.7156 C   0  0  0  0  0  0  0  0  0  0  0  0
   10.2190   -5.7870  -12.1903 C   0  0  0  0  0  0  0  0  0  0  0  0
    9.5359   -6.7315  -12.5560 O   0  0  0  0  0  0  0  0  0  0  0  0
   10.9206   -5.0975  -13.0654 N   0  0  0  0  0  0  0  0  0  0  0  0
    8.0010   -4.3852  -11.7460 H   0  0  0  0  0  0  0  0  0  0  0  0
    8.6012   -3.2528  -10.5204 H   0  0  0  0  0  0  0  0  0  0  0  0
    7.1162   -4.1893  -10.2298 H   0  0  0  0  0  0  0  0  0  0  0  0
    8.4183   -6.2919  -10.2460 H   0  0  0  0  0  0  0  0  0  0  0  0
    9.4897   -4.2564   -8.3950 H   0  0  0  0  0  0  0  0  0  0  0  0
    9.6021   -5.8957   -8.2399 H   0  0  0  0  0  0  0  0  0  0  0  0
    8.1192   -5.1608   -8.1731 H   0  0  0  0  0  0  0  0  0  0  0  0
   10.9353   -6.1718  -10.2142 H   0  0  0  0  0  0  0  0  0  0  0  0
   10.8095   -4.4579  -10.6322 H   0  0  0  0  0  0  0  0  0  0  0  0
   10.8434   -5.3712  -14.0339 H   0  0  0  0  0  0  0  0  0  0  0  0
   11.5052   -4.3244  -12.7947 H   0  0  0  0  0  0  0  0  0  0  0  0
  1  2  1  0
  1  8  1  0
  1  9  1  0
  1 10  1  0
  2  3  1  0
  2  4  1  0
  2 11  1  0
  3 12  1  0
  3 13  1  0
  3 14  1  0
  4  5  1  0
  4 15  1  0
  4 16  1  0
  5  6  2  0
  5  7  1  0
  7 17  1  0
  7 18  1  0
M  CHG  1   3   1
M  END
> <intraLJ>
1.146     

> <intraEL>
-7.895    

> <intraDihe>
0.169     

> <interLJ>
0.000     

> <interEJ>
0.000     

> <gridLJ>
-3.465    

> <gridEL>
0.000     

> <totalE>
-10.046   

> <LGFE>
-3.465  

> <LE>
-0.495  

> <SMILES>
CC([NH3+])CC(N)=O

> <atom.dprop.GFE>
-0.15 -0.13 -1.8 -0.28 0 -0.59 -0.55 0 0 0 0 0 0 0 0 0 0 0

> <atom.prop.CLASS>
PRPC PRPC MAMN PRPC NCLA GENA GEND NCLA NCLA NCLA NCLA NCLA NCLA NCLA NCLA NCLA NCLA NCLA

$$$$
