52_1
     RDKit          3D

 10 10  0  0  0  0  0  0  0  0999 V2000
  -16.8869   -9.4579   -7.6448 C   0  0  0  0  0  0  0  0  0  0  0  0
  -16.9498   -7.9495   -7.5811 C   0  0  0  0  0  0  0  0  0  0  0  0
  -16.9580   -7.1106   -8.5478 N   0  0  0  0  0  0  0  0  0  0  0  0
  -17.0233   -5.8780   -7.9748 N   0  0  0  0  0  0  0  0  0  0  0  0
  -17.0539   -5.9811   -6.6764 N   0  0  0  0  0  0  0  0  0  0  0  0
  -17.0080   -7.2742   -6.4473 N   0  0  0  0  0  0  0  0  0  0  0  0
  -16.8649   -9.7509   -8.6953 H   0  0  0  0  0  0  0  0  0  0  0  0
  -17.7722   -9.8641   -7.1557 H   0  0  0  0  0  0  0  0  0  0  0  0
  -15.9790   -9.7889   -7.1404 H   0  0  0  0  0  0  0  0  0  0  0  0
  -17.0171   -7.6852   -5.4992 H   0  0  0  0  0  0  0  0  0  0  0  0
  1  2  1  0
  1  7  1  0
  1  8  1  0
  1  9  1  0
  2  3  2  0
  2  6  1  0
  3  4  1  0
  4  5  2  0
  5  6  1  0
  6 10  1  0
M  END
> <intraLJ>
-0.215    

> <intraEL>
-1.684    

> <intraDihe>
1.140     

> <interLJ>
0.000     

> <interEJ>
0.000     

> <gridLJ>
-5.116    

> <gridEL>
0.000     

> <totalE>
-5.875    

> <LGFE>
-5.116  

> <LE>
-0.853  

> <SMILES>
Cc1nnn[nH]1

> <atom.dprop.GFE>
-0.22 -0.22 -0.58 -1.2 -1.5 -1.4 0 0 0 0

> <atom.prop.CLASS>
PRPC GEHC GENA GENA GENA GEND NCLA NCLA NCLA NCLA

$$$$
