31_2
     RDKit          3D

 16 16  0  0  0  0  0  0  0  0999 V2000
   16.3433   15.6950  -32.9127 O   0  0  0  0  0  0  0  0  0  0  0  0
   17.3806   15.1912  -33.2985 C   0  0  0  0  0  0  0  0  0  0  0  0
   18.7484   15.8666  -33.0092 C   0  0  0  0  0  0  0  0  0  0  0  0
   19.9557   14.9837  -33.2064 N   0  0  0  0  0  0  0  0  0  0  0  0
   19.7924   14.1545  -34.4411 C   0  0  0  0  0  0  0  0  0  0  0  0
   18.5274   13.2720  -34.3479 C   0  0  0  0  0  0  0  0  0  0  0  0
   17.3484   14.0896  -34.0521 N   0  0  0  0  0  0  0  0  0  0  0  0
   18.7186   16.2514  -31.9878 H   0  0  0  0  0  0  0  0  0  0  0  0
   18.8096   16.7269  -33.6788 H   0  0  0  0  0  0  0  0  0  0  0  0
   20.0350   14.3697  -32.4040 H   0  0  0  0  0  0  0  0  0  0  0  0
   20.7927   15.5525  -33.2614 H   0  0  0  0  0  0  0  0  0  0  0  0
   20.6613   13.5083  -34.5876 H   0  0  0  0  0  0  0  0  0  0  0  0
   19.6959   14.8014  -35.3186 H   0  0  0  0  0  0  0  0  0  0  0  0
   18.6610   12.5221  -33.5643 H   0  0  0  0  0  0  0  0  0  0  0  0
   18.3855   12.7515  -35.2982 H   0  0  0  0  0  0  0  0  0  0  0  0
   16.4221   13.7285  -34.2547 H   0  0  0  0  0  0  0  0  0  0  0  0
  1  2  2  0
  2  3  1  0
  2  7  1  0
  3  4  1  0
  3  8  1  0
  3  9  1  0
  4  5  1  0
  4 10  1  0
  4 11  1  0
  5  6  1  0
  5 12  1  0
  5 13  1  0
  6  7  1  0
  6 14  1  0
  6 15  1  0
  7 16  1  0
M  CHG  1   4   1
M  END
> <intraLJ>
0.159     

> <intraEL>
4.369     

> <intraDihe>
10.053    

> <interLJ>
0.000     

> <interEJ>
0.000     

> <gridLJ>
-2.021    

> <gridEL>
0.000     

> <totalE>
12.560    

> <LGFE>
-2.021  

> <LE>
-0.289  

> <SMILES>
O=C1C[NH2+]CCN1

> <atom.dprop.GFE>
0.32 0 -0.2 -1 0.066 -0.31 -0.89 0 0 0 0 0 0 0 0 0

> <atom.prop.CLASS>
GENA NCLA PRPC MAMN PRPC PRPC GEND NCLA NCLA NCLA NCLA NCLA NCLA NCLA NCLA NCLA

$$$$
