23_3
     RDKit          3D

 11 11  0  0  0  0  0  0  0  0999 V2000
  -22.6365    2.1697   22.5302 O   0  0  0  0  0  0  0  0  0  0  0  0
  -21.5905    1.8364   23.0660 C   0  0  0  0  0  0  0  0  0  0  0  0
  -20.8499    0.8915   22.4163 N   0  0  0  0  0  0  0  0  0  0  0  0
  -19.6545    0.4247   22.9041 C   0  0  0  0  0  0  0  0  0  0  0  0
  -19.2208    0.9465   24.0834 C   0  0  0  0  0  0  0  0  0  0  0  0
  -20.0058    1.9317   24.7474 C   0  0  0  0  0  0  0  0  0  0  0  0
  -21.1207    2.3510   24.2694 N   0  0  0  0  0  0  0  0  0  0  0  0
  -21.2562    0.5551   21.5325 H   0  0  0  0  0  0  0  0  0  0  0  0
  -19.1507   -0.3115   22.3264 H   0  0  0  0  0  0  0  0  0  0  0  0
  -18.3089    0.6344   24.5190 H   0  0  0  0  0  0  0  0  0  0  0  0
  -19.6634    2.3361   25.6665 H   0  0  0  0  0  0  0  0  0  0  0  0
  1  2  2  0
  2  3  1  0
  2  7  1  0
  3  4  1  0
  3  8  1  0
  4  5  2  0
  4  9  1  0
  5  6  1  0
  5 10  1  0
  6  7  2  0
  6 11  1  0
M  END
> <intraLJ>
11.692    

> <intraEL>
-4.846    

> <intraDihe>
0.000     

> <interLJ>
0.000     

> <interEJ>
0.000     

> <gridLJ>
-5.223    

> <gridEL>
0.000     

> <totalE>
1.623     

> <LGFE>
-5.223  

> <LE>
-0.746  

> <SMILES>
O=c1nccc[nH]1

> <atom.dprop.GFE>
-1.9 -0.33 -0.92 -0.19 -0.11 -0.074 -1.7 0 0 0 0

> <atom.prop.CLASS>
GENA GEHC GEND BENC BENC BENC GENA NCLA NCLA NCLA NCLA

$$$$
