9_1
     RDKit          3D

 12 12  0  0  0  0  0  0  0  0999 V2000
    3.4688    0.6154  -38.3993 O   0  0  0  0  0  0  0  0  0  0  0  0
    3.3871    1.4521  -39.5899 C   0  0  0  0  0  0  0  0  0  0  0  0
    4.7234    2.1669  -39.9406 C   0  0  0  0  0  0  0  0  0  0  0  0
    3.9278    3.4036  -40.1428 N   0  0  0  0  0  0  0  0  0  0  0  0
    2.8197    2.8716  -39.3062 C   0  0  0  0  0  0  0  0  0  0  0  0
    4.0106   -0.1696  -38.5772 H   0  0  0  0  0  0  0  0  0  0  0  0
    2.9205    0.9429  -40.4218 H   0  0  0  0  0  0  0  0  0  0  0  0
    5.1897    1.7984  -40.8432 H   0  0  0  0  0  0  0  0  0  0  0  0
    5.3965    2.2374  -39.0965 H   0  0  0  0  0  0  0  0  0  0  0  0
    3.6573    3.5587  -41.1177 H   0  0  0  0  0  0  0  0  0  0  0  0
    2.9062    3.1597  -38.2671 H   0  0  0  0  0  0  0  0  0  0  0  0
    1.8379    3.0400  -39.7276 H   0  0  0  0  0  0  0  0  0  0  0  0
  1  2  1  0
  1  6  1  0
  2  3  1  0
  2  5  1  0
  2  7  1  0
  3  4  1  0
  3  8  1  0
  3  9  1  0
  4  5  1  0
  4 10  1  0
  5 11  1  0
  5 12  1  0
M  END
> <intraLJ>
0.433     

> <intraEL>
3.457     

> <intraDihe>
10.151    

> <interLJ>
0.000     

> <interEJ>
0.000     

> <gridLJ>
-2.791    

> <gridEL>
0.000     

> <totalE>
11.250    

> <LGFE>
-2.791  

> <LE>
-0.558  

> <SMILES>
OC1CNC1

> <atom.dprop.GFE>
-0.96 -0.39 -0.07 -0.92 -0.46 0 0 0 0 0 0 0

> <atom.prop.CLASS>
MEOO PRPC PRPC GEND PRPC NCLA NCLA NCLA NCLA NCLA NCLA NCLA

$$$$
