1
     RDKit          3D

  9  9  0  0  0  0  0  0  0  0999 V2000
   18.8656    7.1021   -7.6059 Br  0  0  0  0  0  0  0  0  0  0  0  0
   18.1771    6.7737   -5.8863 C   0  0  0  0  0  0  0  0  0  0  0  0
   18.8930    6.7090   -4.6948 C   0  0  0  0  0  0  0  0  0  0  0  0
   18.1021    6.4627   -3.6823 N   0  0  0  0  0  0  0  0  0  0  0  0
   16.8614    6.3696   -4.2338 N   0  0  0  0  0  0  0  0  0  0  0  0
   16.8826    6.5552   -5.5723 C   0  0  0  0  0  0  0  0  0  0  0  0
   19.9409    6.8374   -4.6000 H   0  0  0  0  0  0  0  0  0  0  0  0
   16.0114    6.1769   -3.6692 H   0  0  0  0  0  0  0  0  0  0  0  0
   16.0103    6.5189   -6.1710 H   0  0  0  0  0  0  0  0  0  0  0  0
  1  2  1  0
  2  3  1  0
  2  6  2  0
  3  4  2  0
  3  7  1  0
  4  5  1  0
  5  6  1  0
  5  8  1  0
  6  9  1  0
M  END
> <intraLJ>
-0.882    

> <intraEL>
0.676     

> <intraDihe>
0.000     

> <interLJ>
0.000     

> <interEJ>
0.000     

> <gridLJ>
-3.527    

> <gridEL>
0.000     

> <totalE>
-3.733    

> <LGFE>
-3.527  

> <LE>
-0.588  

> <SMILES>
Brc1cn[nH]c1

> <atom.dprop.GFE>
-0.84 -0.22 -0.24 -0.94 -0.98 -0.3 0 0 0

> <atom.prop.CLASS>
GENA GEHC GEHC GENA GEND GEHC NCLA NCLA NCLA

$$$$
