2_1
     RDKit          3D

 15 15  0  0  0  0  0  0  0  0999 V2000
  -26.3526    2.1599    5.4346 C   0  0  0  0  0  0  0  0  0  0  0  0
  -27.4378    2.0017    6.5156 C   0  0  0  0  0  0  0  0  0  0  0  0
  -27.5675    3.1936    7.2924 O   0  0  0  0  0  0  0  0  0  0  0  0
  -26.3357    3.5471    7.9238 C   0  0  0  0  0  0  0  0  0  0  0  0
  -25.2178    3.7503    6.8836 C   0  0  0  0  0  0  0  0  0  0  0  0
  -25.0450    2.5477    6.0269 N   0  0  0  0  0  0  0  0  0  0  0  0
  -26.6832    2.9303    4.7350 H   0  0  0  0  0  0  0  0  0  0  0  0
  -26.2486    1.2194    4.8920 H   0  0  0  0  0  0  0  0  0  0  0  0
  -27.1703    1.1675    7.1654 H   0  0  0  0  0  0  0  0  0  0  0  0
  -28.3920    1.7793    6.0373 H   0  0  0  0  0  0  0  0  0  0  0  0
  -26.0360    2.7573    8.6138 H   0  0  0  0  0  0  0  0  0  0  0  0
  -26.4721    4.4700    8.4878 H   0  0  0  0  0  0  0  0  0  0  0  0
  -24.2841    3.9730    7.4014 H   0  0  0  0  0  0  0  0  0  0  0  0
  -25.4845    4.6089    6.2637 H   0  0  0  0  0  0  0  0  0  0  0  0
  -24.3542    2.7138    5.3042 H   0  0  0  0  0  0  0  0  0  0  0  0
  1  2  1  0
  1  6  1  0
  1  7  1  0
  1  8  1  0
  2  3  1  0
  2  9  1  0
  2 10  1  0
  3  4  1  0
  4  5  1  0
  4 11  1  0
  4 12  1  0
  5  6  1  0
  5 13  1  0
  5 14  1  0
  6 15  1  0
M  END
> <intraLJ>
0.516     

> <intraEL>
2.915     

> <intraDihe>
4.772     

> <interLJ>
0.000     

> <interEJ>
0.000     

> <gridLJ>
-2.992    

> <gridEL>
0.000     

> <totalE>
5.211     

> <LGFE>
-2.992  

> <LE>
-0.499  

> <SMILES>
C1COCCN1

> <atom.dprop.GFE>
-0.36 -0.39 -0.75 -0.31 -0.31 -0.88 0 0 0 0 0 0 0 0 0

> <atom.prop.CLASS>
PRPC PRPC GENA PRPC PRPC GEND NCLA NCLA NCLA NCLA NCLA NCLA NCLA NCLA NCLA

$$$$
