11_3
     RDKit          3D

 11 11  0  0  0  0  0  0  0  0999 V2000
   12.0068    4.1399  -44.2463 O   0  0  0  0  0  0  0  0  0  0  0  0
   12.7841    5.1239  -43.8052 C   0  0  0  0  0  0  0  0  0  0  0  0
   12.3256    6.1297  -42.8086 C   0  0  0  0  0  0  0  0  0  0  0  0
   13.6220    6.9464  -42.7170 C   0  0  0  0  0  0  0  0  0  0  0  0
   14.5356    6.2780  -43.6503 O   0  0  0  0  0  0  0  0  0  0  0  0
   13.9477    5.2063  -44.2441 N   0  0  0  0  0  0  0  0  0  0  0  0
   12.6011    3.6790  -44.8695 H   0  0  0  0  0  0  0  0  0  0  0  0
   12.1041    5.6402  -41.8725 H   0  0  0  0  0  0  0  0  0  0  0  0
   11.5213    6.7160  -43.2278 H   0  0  0  0  0  0  0  0  0  0  0  0
   14.0324    6.9136  -41.7076 H   0  0  0  0  0  0  0  0  0  0  0  0
   13.4564    7.9768  -43.0334 H   0  0  0  0  0  0  0  0  0  0  0  0
  1  2  1  0
  1  7  1  0
  2  3  1  0
  2  6  2  0
  3  4  1  0
  3  8  1  0
  3  9  1  0
  4  5  1  0
  4 10  1  0
  4 11  1  0
  5  6  1  0
M  END
> <intraLJ>
-0.718    

> <intraEL>
-4.916    

> <intraDihe>
22.322    

> <interLJ>
0.000     

> <interEJ>
0.000     

> <gridLJ>
-2.810    

> <gridEL>
0.000     

> <totalE>
13.879    

> <LGFE>
-2.810  

> <LE>
-0.468  

> <SMILES>
OC1=NOCC1

> <atom.dprop.GFE>
-0.73 -0.17 -0.37 -0.31 -0.7 -0.54 0 0 0 0 0

> <atom.prop.CLASS>
MEOO GEHC PRPC PRPC GENA GENA NCLA NCLA NCLA NCLA NCLA

$$$$
