71_1
     RDKit          3D

 18 18  0  0  0  0  0  0  0  0999 V2000
    7.6220   12.8325  -34.9322 C   0  0  0  0  0  0  0  0  0  0  0  0
    6.7173   13.0822  -36.1443 C   0  0  0  0  0  0  0  0  0  0  0  0
    7.1675   12.3933  -37.3777 N   0  0  0  0  0  0  0  0  0  0  0  0
    8.6337   12.2579  -37.5923 C   0  0  0  0  0  0  0  0  0  0  0  0
    9.4458   13.5099  -37.2308 C   0  0  0  0  0  0  0  0  0  0  0  0
    9.8386   13.4788  -35.8598 O   0  0  0  0  0  0  0  0  0  0  0  0
    8.8251   13.7886  -34.9116 C   0  0  0  0  0  0  0  0  0  0  0  0
    7.9568   11.7954  -34.9106 H   0  0  0  0  0  0  0  0  0  0  0  0
    7.0364   13.0170  -34.0334 H   0  0  0  0  0  0  0  0  0  0  0  0
    6.6729   14.1581  -36.3230 H   0  0  0  0  0  0  0  0  0  0  0  0
    5.7043   12.7460  -35.9121 H   0  0  0  0  0  0  0  0  0  0  0  0
    6.7165   12.8155  -38.1793 H   0  0  0  0  0  0  0  0  0  0  0  0
    8.8199   11.9924  -38.6338 H   0  0  0  0  0  0  0  0  0  0  0  0
    9.0120   11.4385  -36.9787 H   0  0  0  0  0  0  0  0  0  0  0  0
    8.8848   14.4150  -37.4660 H   0  0  0  0  0  0  0  0  0  0  0  0
   10.3544   13.5027  -37.8325 H   0  0  0  0  0  0  0  0  0  0  0  0
    9.2800   13.7363  -33.9206 H   0  0  0  0  0  0  0  0  0  0  0  0
    8.4831   14.8148  -35.0607 H   0  0  0  0  0  0  0  0  0  0  0  0
  1  2  1  0
  1  7  1  0
  1  8  1  0
  1  9  1  0
  2  3  1  0
  2 10  1  0
  2 11  1  0
  3  4  1  0
  3 12  1  0
  4  5  1  0
  4 13  1  0
  4 14  1  0
  5  6  1  0
  5 15  1  0
  5 16  1  0
  6  7  1  0
  7 17  1  0
  7 18  1  0
M  END
> <intraLJ>
0.655     

> <intraEL>
0.902     

> <intraDihe>
9.506     

> <interLJ>
0.000     

> <interEJ>
0.000     

> <gridLJ>
-3.600    

> <gridEL>
0.000     

> <totalE>
7.463     

> <LGFE>
-3.600  

> <LE>
-0.514  

> <SMILES>
C1CNCCOC1

> <atom.dprop.GFE>
-0.29 -0.24 -0.69 -0.3 -0.31 -1.4 -0.32 0 0 0 0 0 0 0 0 0 0 0

> <atom.prop.CLASS>
PRPC PRPC GEND PRPC PRPC GENA PRPC NCLA NCLA NCLA NCLA NCLA NCLA NCLA NCLA NCLA NCLA NCLA

$$$$
