36_2
     RDKit          3D

 14 14  0  0  0  0  0  0  0  0999 V2000
  -39.1172   11.1833   16.4945 N   0  0  0  0  0  0  0  0  0  0  0  0
  -39.1171    9.9100   17.2141 C   0  0  0  0  0  0  0  0  0  0  0  0
  -38.3161    9.0019   16.2995 C   0  0  0  0  0  0  0  0  0  0  0  0
  -38.7868    8.0012   15.5367 C   0  0  0  0  0  0  0  0  0  0  0  0
  -37.7660    7.4530   14.9046 O   0  0  0  0  0  0  0  0  0  0  0  0
  -36.6831    8.1358   15.3042 C   0  0  0  0  0  0  0  0  0  0  0  0
  -36.9582    9.0790   16.1418 N   0  0  0  0  0  0  0  0  0  0  0  0
  -39.2213   11.9593   17.1288 H   0  0  0  0  0  0  0  0  0  0  0  0
  -39.8325   11.1505   15.7843 H   0  0  0  0  0  0  0  0  0  0  0  0
  -38.2180   11.1842   16.0135 H   0  0  0  0  0  0  0  0  0  0  0  0
  -40.1220    9.5219   17.3310 H   0  0  0  0  0  0  0  0  0  0  0  0
  -38.5767   10.0043   18.1502 H   0  0  0  0  0  0  0  0  0  0  0  0
  -39.7724    7.6321   15.3930 H   0  0  0  0  0  0  0  0  0  0  0  0
  -35.7298    7.8634   14.9211 H   0  0  0  0  0  0  0  0  0  0  0  0
  1  2  1  0
  1  8  1  0
  1  9  1  0
  1 10  1  0
  2  3  1  0
  2 11  1  0
  2 12  1  0
  3  4  2  0
  3  7  1  0
  4  5  1  0
  4 13  1  0
  5  6  1  0
  6  7  2  0
  6 14  1  0
M  CHG  1   1   1
M  END
> <intraLJ>
0.690     

> <intraEL>
4.703     

> <intraDihe>
11.923    

> <interLJ>
0.000     

> <interEJ>
0.000     

> <gridLJ>
-2.915    

> <gridEL>
0.000     

> <totalE>
14.402    

> <LGFE>
-2.915  

> <LE>
-0.416  

> <SMILES>
[NH3+]Cc1cocn1

> <atom.dprop.GFE>
-0.78 -0.091 -0.19 -0.24 -0.56 -0.27 -0.77 0 0 0 0 0 0 0

> <atom.prop.CLASS>
MAMN PRPC GEHC GEHC GENA GEHC GENA NCLA NCLA NCLA NCLA NCLA NCLA NCLA

$$$$
