36_1
     RDKit          3D

 13 13  0  0  0  0  0  0  0  0999 V2000
   20.5267    6.1487   -8.5479 N   0  0  0  0  0  0  0  0  0  0  0  0
   21.0822    7.1258   -7.6185 C   0  0  0  0  0  0  0  0  0  0  0  0
   22.5701    7.1366   -7.9129 C   0  0  0  0  0  0  0  0  0  0  0  0
   23.2514    8.1049   -8.5483 C   0  0  0  0  0  0  0  0  0  0  0  0
   24.5215    7.7429   -8.6112 O   0  0  0  0  0  0  0  0  0  0  0  0
   24.5755    6.5468   -8.0022 C   0  0  0  0  0  0  0  0  0  0  0  0
   23.4352    6.1393   -7.5683 N   0  0  0  0  0  0  0  0  0  0  0  0
   21.0394    5.2904   -8.3794 H   0  0  0  0  0  0  0  0  0  0  0  0
   20.7657    6.4402   -9.4848 H   0  0  0  0  0  0  0  0  0  0  0  0
   20.9295    6.7930   -6.6000 H   0  0  0  0  0  0  0  0  0  0  0  0
   20.6623    8.1051   -7.8130 H   0  0  0  0  0  0  0  0  0  0  0  0
   22.9216    9.0233   -8.9608 H   0  0  0  0  0  0  0  0  0  0  0  0
   25.5094    6.0470   -7.9283 H   0  0  0  0  0  0  0  0  0  0  0  0
  1  2  1  0
  1  8  1  0
  1  9  1  0
  2  3  1  0
  2 10  1  0
  2 11  1  0
  3  4  2  0
  3  7  1  0
  4  5  1  0
  4 12  1  0
  5  6  1  0
  6  7  2  0
  6 13  1  0
M  END
> <intraLJ>
0.928     

> <intraEL>
3.158     

> <intraDihe>
2.711     

> <interLJ>
0.000     

> <interEJ>
0.000     

> <gridLJ>
-4.840    

> <gridEL>
0.000     

> <totalE>
1.957     

> <LGFE>
-4.840  

> <LE>
-0.691  

> <SMILES>
NCc1cocn1

> <atom.dprop.GFE>
-0.99 -0.29 -0.29 -0.4 -1.3 -0.36 -1.2 0 0 0 0 0 0

> <atom.prop.CLASS>
GEND PRPC GEHC GEHC GENA GEHC GENA NCLA NCLA NCLA NCLA NCLA NCLA

$$$$
