75
     RDKit          3D

 11 11  0  0  0  0  0  0  0  0999 V2000
  -39.2396    7.5128   21.9470 O   0  0  0  0  0  0  0  0  0  0  0  0
  -39.5410    6.9165   20.6961 S   0  0  0  0  0  0  0  0  0  0  0  0
  -40.8173    7.0980   20.1065 O   0  0  0  0  0  0  0  0  0  0  0  0
  -39.1050    5.2432   20.6305 C   0  0  0  0  0  0  0  0  0  0  0  0
  -38.1506    5.6501   19.3913 C   0  0  0  0  0  0  0  0  0  0  0  0
  -38.3558    7.1855   19.6512 N   0  0  0  0  0  0  0  0  0  0  0  0
  -39.8288    4.5094   20.3016 H   0  0  0  0  0  0  0  0  0  0  0  0
  -38.5134    4.8230   21.4338 H   0  0  0  0  0  0  0  0  0  0  0  0
  -38.5610    5.3382   18.4401 H   0  0  0  0  0  0  0  0  0  0  0  0
  -37.1261    5.3306   19.5243 H   0  0  0  0  0  0  0  0  0  0  0  0
  -37.5030    7.6043   20.0121 H   0  0  0  0  0  0  0  0  0  0  0  0
  1  2  2  0
  2  3  2  0
  2  4  1  0
  2  6  1  0
  4  5  1  0
  4  7  1  0
  4  8  1  0
  5  6  1  0
  5  9  1  0
  5 10  1  0
  6 11  1  0
M  END
> <intraLJ>
-0.439    

> <intraEL>
-3.883    

> <intraDihe>
14.792    

> <interLJ>
0.000     

> <interEJ>
0.000     

> <gridLJ>
-3.361    

> <gridEL>
0.000     

> <totalE>
7.109     

> <LGFE>
-3.361  

> <LE>
-0.560  

> <SMILES>
O=S1(=O)CCN1

> <atom.dprop.GFE>
-0.7 0 -0.83 -0.56 -0.43 -0.84 0 0 0 0 0

> <atom.prop.CLASS>
GENA NCLA GENA PRPC PRPC GEND NCLA NCLA NCLA NCLA NCLA

$$$$
