23_1
     RDKit          3D

 11 11  0  0  0  0  0  0  0  0999 V2000
    9.6888   14.1104  -35.8036 O   0  0  0  0  0  0  0  0  0  0  0  0
    8.6517   13.3290  -35.9688 C   0  0  0  0  0  0  0  0  0  0  0  0
    7.4664   13.7153  -35.5198 N   0  0  0  0  0  0  0  0  0  0  0  0
    6.4466   12.8952  -35.7084 C   0  0  0  0  0  0  0  0  0  0  0  0
    6.6406   11.6828  -36.3544 C   0  0  0  0  0  0  0  0  0  0  0  0
    7.9146   11.3566  -36.7936 C   0  0  0  0  0  0  0  0  0  0  0  0
    8.9227   12.1936  -36.5940 N   0  0  0  0  0  0  0  0  0  0  0  0
   10.3796   13.5704  -36.2223 H   0  0  0  0  0  0  0  0  0  0  0  0
    5.4875   13.1824  -35.3573 H   0  0  0  0  0  0  0  0  0  0  0  0
    5.8298   11.0210  -36.5093 H   0  0  0  0  0  0  0  0  0  0  0  0
    8.1020   10.4381  -37.2928 H   0  0  0  0  0  0  0  0  0  0  0  0
  1  2  1  0
  1  8  1  0
  2  3  2  0
  2  7  1  0
  3  4  1  0
  4  5  2  0
  4  9  1  0
  5  6  1  0
  5 10  1  0
  6  7  2  0
  6 11  1  0
M  END
> <intraLJ>
20.130    

> <intraEL>
-14.212   

> <intraDihe>
6.700     

> <interLJ>
0.000     

> <interEJ>
0.000     

> <gridLJ>
-3.817    

> <gridEL>
0.000     

> <totalE>
8.801     

> <LGFE>
-3.817  

> <LE>
-0.545  

> <SMILES>
Oc1ncccn1

> <atom.dprop.GFE>
-1.4 -0.2 -0.37 -0.12 -0.078 -0.11 -1.6 0 0 0 0

> <atom.prop.CLASS>
MEOO GEHC GENA BENC BENC BENC GENA NCLA NCLA NCLA NCLA

$$$$
