81_1
     RDKit          3D

 18 18  0  0  1  0  0  0  0  0999 V2000
  -21.5625    4.1859    7.3541 N   0  0  0  0  0  0  0  0  0  0  0  0
  -20.9516    5.1162    6.3705 C   0  0  0  0  0  0  0  0  0  0  0  0
  -19.4864    5.4660    6.6947 C   0  0  0  0  0  0  0  0  0  0  0  0
  -18.5450    4.2722    6.5581 C   0  0  0  0  0  0  0  0  0  0  0  0
  -17.3471    4.6891    7.4114 C   0  0  0  0  0  0  0  0  0  0  0  0
  -17.9066    5.7929    8.3110 C   0  0  0  0  0  0  0  0  0  0  0  0
  -19.2958    5.8264    8.0496 O   0  0  0  0  0  0  0  0  0  0  0  0
  -22.5100    3.9537    7.0898 H   0  0  0  0  0  0  0  0  0  0  0  0
  -21.5446    4.5761    8.2863 H   0  0  0  0  0  0  0  0  0  0  0  0
  -20.9782    4.6669    5.3759 H   0  0  0  0  0  0  0  0  0  0  0  0
  -21.5319    6.0408    6.3453 H   0  0  0  0  0  0  0  0  0  0  0  0
  -19.1479    6.2727    6.0424 H   0  0  0  0  0  0  0  0  0  0  0  0
  -19.0132    3.3842    6.9871 H   0  0  0  0  0  0  0  0  0  0  0  0
  -18.2628    4.1001    5.5192 H   0  0  0  0  0  0  0  0  0  0  0  0
  -16.5485    5.0932    6.7871 H   0  0  0  0  0  0  0  0  0  0  0  0
  -16.9819    3.8506    8.0051 H   0  0  0  0  0  0  0  0  0  0  0  0
  -17.4589    6.7528    8.0439 H   0  0  0  0  0  0  0  0  0  0  0  0
  -17.7213    5.5775    9.3647 H   0  0  0  0  0  0  0  0  0  0  0  0
  1  2  1  0
  1  8  1  0
  1  9  1  0
  2  3  1  0
  2 10  1  0
  2 11  1  0
  3  4  1  0
  3  7  1  0
  3 12  1  0
  4  5  1  0
  4 13  1  0
  4 14  1  0
  5  6  1  0
  5 15  1  0
  5 16  1  0
  6  7  1  0
  6 17  1  0
  6 18  1  0
M  END
> <intraLJ>
0.112     

> <intraEL>
2.630     

> <intraDihe>
8.950     

> <interLJ>
0.000     

> <interEJ>
0.000     

> <gridLJ>
-5.485    

> <gridEL>
0.000     

> <totalE>
6.207     

> <LGFE>
-5.485  

> <LE>
-0.784  

> <SMILES>
NCC1CCCO1

> <atom.dprop.GFE>
-1 -0.56 -0.56 -0.47 -0.54 -0.54 -1.8 0 0 0 0 0 0 0 0 0 0 0

> <atom.prop.CLASS>
GEND PRPC PRPC PRPC PRPC PRPC GENA NCLA NCLA NCLA NCLA NCLA NCLA NCLA NCLA NCLA NCLA NCLA

$$$$
