80
     RDKit          3D

 16 16  0  0  0  0  0  0  0  0999 V2000
  -24.6608   -5.9617   29.4395 N   0  0  0  0  0  0  0  0  0  0  0  0
  -24.4908   -5.0015   30.3616 C   0  0  0  0  0  0  0  0  0  0  0  0
  -23.3886   -4.5060   30.4180 O   0  0  0  0  0  0  0  0  0  0  0  0
  -25.6649   -4.6142   31.2448 C   0  0  0  0  0  0  0  0  0  0  0  0
  -26.8387   -3.9589   30.4647 C   0  0  0  0  0  0  0  0  0  0  0  0
  -26.9751   -2.9880   31.6752 C   0  0  0  0  0  0  0  0  0  0  0  0
  -25.4712   -3.2570   31.9773 C   0  0  0  0  0  0  0  0  0  0  0  0
  -23.8665   -6.1976   28.8690 H   0  0  0  0  0  0  0  0  0  0  0  0
  -25.5455   -6.4217   29.3285 H   0  0  0  0  0  0  0  0  0  0  0  0
  -25.9694   -5.4246   31.8967 H   0  0  0  0  0  0  0  0  0  0  0  0
  -27.6906   -4.6091   30.3218 H   0  0  0  0  0  0  0  0  0  0  0  0
  -26.5284   -3.4492   29.5617 H   0  0  0  0  0  0  0  0  0  0  0  0
  -27.6298   -3.3745   32.4466 H   0  0  0  0  0  0  0  0  0  0  0  0
  -27.1944   -1.9660   31.3992 H   0  0  0  0  0  0  0  0  0  0  0  0
  -24.8181   -2.5703   31.4547 H   0  0  0  0  0  0  0  0  0  0  0  0
  -25.2415   -3.3524   33.0296 H   0  0  0  0  0  0  0  0  0  0  0  0
  1  2  1  0
  1  8  1  0
  1  9  1  0
  2  3  2  0
  2  4  1  0
  4  5  1  0
  4  7  1  0
  4 10  1  0
  5  6  1  0
  5 11  1  0
  5 12  1  0
  6  7  1  0
  6 13  1  0
  6 14  1  0
  7 15  1  0
  7 16  1  0
M  END
> <intraLJ>
0.061     

> <intraEL>
-0.840    

> <intraDihe>
21.650    

> <interLJ>
0.000     

> <interEJ>
0.000     

> <gridLJ>
-2.468    

> <gridEL>
0.000     

> <totalE>
18.403    

> <LGFE>
-2.468  

> <LE>
-0.353  

> <SMILES>
NC(=O)C1CCC1

> <atom.dprop.GFE>
-0.55 0 -0.64 -0.35 -0.32 -0.29 -0.31 0 0 0 0 0 0 0 0 0

> <atom.prop.CLASS>
GEND NCLA GENA PRPC PRPC PRPC PRPC NCLA NCLA NCLA NCLA NCLA NCLA NCLA NCLA NCLA

$$$$
