28_2
     RDKit          3D

 10 10  0  0  0  0  0  0  0  0999 V2000
   15.9567    6.8031   -6.4982 C   0  0  0  0  0  0  0  0  0  0  0  0
   16.0011    6.7533   -5.1484 C   0  0  0  0  0  0  0  0  0  0  0  0
   17.2411    6.2738   -4.8148 N   0  0  0  0  0  0  0  0  0  0  0  0
   17.9433    6.0348   -5.9152 C   0  0  0  0  0  0  0  0  0  0  0  0
   17.1708    6.3530   -6.9475 N   0  0  0  0  0  0  0  0  0  0  0  0
   15.1799    7.1141   -7.1584 H   0  0  0  0  0  0  0  0  0  0  0  0
   15.2700    7.0129   -4.4160 H   0  0  0  0  0  0  0  0  0  0  0  0
   17.5981    6.1148   -3.8472 H   0  0  0  0  0  0  0  0  0  0  0  0
   18.9413    5.6567   -5.9626 H   0  0  0  0  0  0  0  0  0  0  0  0
   17.4629    6.2666   -7.9449 H   0  0  0  0  0  0  0  0  0  0  0  0
  1  2  2  0
  1  5  1  0
  1  6  1  0
  2  3  1  0
  2  7  1  0
  3  4  2  0
  3  8  1  0
  4  5  1  0
  4  9  1  0
  5 10  1  0
M  CHG  1   3   1
M  END
> <intraLJ>
-0.306    

> <intraEL>
3.276     

> <intraDihe>
0.000     

> <interLJ>
0.000     

> <interEJ>
0.000     

> <gridLJ>
-2.208    

> <gridEL>
0.000     

> <totalE>
0.763     

> <LGFE>
-2.208  

> <LE>
-0.442  

> <SMILES>
c1c[nH+]c[nH]1

> <atom.dprop.GFE>
-0.15 -0.3 0 -1.8 0 0 0 0 0 0

> <atom.prop.CLASS>
GEHC GEHC NCLA MAMC NCLA NCLA NCLA NCLA NCLA NCLA

$$$$
