78_1
     RDKit          3D

 13 12  0  0  0  0  0  0  0  0999 V2000
  -19.2946   -7.6423   27.0873 C   0  0  0  0  0  0  0  0  0  0  0  0
  -20.5174   -6.9315   26.4702 C   0  0  0  0  0  0  0  0  0  0  0  0
  -20.0353   -6.1518   25.2675 C   0  0  0  0  0  0  0  0  0  0  0  0
  -20.3114   -4.9558   25.0516 N   0  0  0  0  0  0  0  0  0  0  0  0
  -19.2453   -6.7726   24.3644 N   0  0  0  0  0  0  0  0  0  0  0  0
  -19.6248   -8.1798   27.9759 H   0  0  0  0  0  0  0  0  0  0  0  0
  -18.5567   -6.8843   27.3606 H   0  0  0  0  0  0  0  0  0  0  0  0
  -18.8739   -8.3380   26.3608 H   0  0  0  0  0  0  0  0  0  0  0  0
  -20.9185   -6.2323   27.1911 H   0  0  0  0  0  0  0  0  0  0  0  0
  -21.2436   -7.6638   26.1505 H   0  0  0  0  0  0  0  0  0  0  0  0
  -19.9095   -4.6292   24.2011 H   0  0  0  0  0  0  0  0  0  0  0  0
  -18.6910   -6.1758   23.7421 H   0  0  0  0  0  0  0  0  0  0  0  0
  -18.8456   -7.6738   24.6469 H   0  0  0  0  0  0  0  0  0  0  0  0
  1  2  1  0
  1  6  1  0
  1  7  1  0
  1  8  1  0
  2  3  1  0
  2  9  1  0
  2 10  1  0
  3  4  2  0
  3  5  1  0
  4 11  1  0
  5 12  1  0
  5 13  1  0
M  END
> <intraLJ>
1.937     

> <intraEL>
-9.551    

> <intraDihe>
7.103     

> <interLJ>
0.000     

> <interEJ>
0.000     

> <gridLJ>
-2.950    

> <gridEL>
0.000     

> <totalE>
-3.461    

> <LGFE>
-2.950  

> <LE>
-0.590  

> <SMILES>
CCC(=N)N

> <atom.dprop.GFE>
-0.38 -0.4 0 -1.5 -0.7 0 0 0 0 0 0 0 0

> <atom.prop.CLASS>
PRPC PRPC NCLA GENA GEND NCLA NCLA NCLA NCLA NCLA NCLA NCLA NCLA

$$$$
