36_2
     RDKit          3D

 14 14  0  0  0  0  0  0  0  0999 V2000
  -46.3843   -0.9144   18.6576 N   0  0  0  0  0  0  0  0  0  0  0  0
  -46.4319   -0.9924   20.1172 C   0  0  0  0  0  0  0  0  0  0  0  0
  -45.1448   -0.3069   20.5372 C   0  0  0  0  0  0  0  0  0  0  0  0
  -45.0203    0.9012   21.1113 C   0  0  0  0  0  0  0  0  0  0  0  0
  -43.7353    1.1325   21.3044 O   0  0  0  0  0  0  0  0  0  0  0  0
  -43.0975    0.0506   20.8341 C   0  0  0  0  0  0  0  0  0  0  0  0
  -43.8982   -0.8458   20.3628 N   0  0  0  0  0  0  0  0  0  0  0  0
  -47.3111   -0.9280   18.2624 H   0  0  0  0  0  0  0  0  0  0  0  0
  -45.7943   -1.6574   18.3155 H   0  0  0  0  0  0  0  0  0  0  0  0
  -45.8931   -0.0379   18.4826 H   0  0  0  0  0  0  0  0  0  0  0  0
  -46.4302   -2.0207   20.4585 H   0  0  0  0  0  0  0  0  0  0  0  0
  -47.2628   -0.4094   20.5006 H   0  0  0  0  0  0  0  0  0  0  0  0
  -45.7477    1.6200   21.3986 H   0  0  0  0  0  0  0  0  0  0  0  0
  -42.0363    0.0145   20.8824 H   0  0  0  0  0  0  0  0  0  0  0  0
  1  2  1  0
  1  8  1  0
  1  9  1  0
  1 10  1  0
  2  3  1  0
  2 11  1  0
  2 12  1  0
  3  4  2  0
  3  7  1  0
  4  5  1  0
  4 13  1  0
  5  6  1  0
  6  7  2  0
  6 14  1  0
M  CHG  1   1   1
M  END
> <intraLJ>
0.858     

> <intraEL>
4.945     

> <intraDihe>
12.025    

> <interLJ>
0.000     

> <interEJ>
0.000     

> <gridLJ>
-2.299    

> <gridEL>
0.000     

> <totalE>
15.530    

> <LGFE>
-2.299  

> <LE>
-0.328  

> <SMILES>
[NH3+]Cc1cocn1

> <atom.dprop.GFE>
-0.89 0.058 0.035 -0.1 -0.71 -0.035 -0.65 0 0 0 0 0 0 0

> <atom.prop.CLASS>
MAMN PRPC GEHC GEHC GENA GEHC GENA NCLA NCLA NCLA NCLA NCLA NCLA NCLA

$$$$
