61_2
     RDKit          3D

 17 17  0  0  0  0  0  0  0  0999 V2000
   13.9534    8.9124    4.7841 C   0  0  0  0  0  0  0  0  0  0  0  0
   13.0509    9.7653    3.8666 C   0  0  0  0  0  0  0  0  0  0  0  0
   11.8820    8.9870    3.3546 N   0  0  0  0  0  0  0  0  0  0  0  0
   12.3561    7.7581    2.6458 C   0  0  0  0  0  0  0  0  0  0  0  0
   13.2511    6.8824    3.5489 C   0  0  0  0  0  0  0  0  0  0  0  0
   14.3876    7.6616    4.1069 N   0  0  0  0  0  0  0  0  0  0  0  0
   13.4029    8.6670    5.6956 H   0  0  0  0  0  0  0  0  0  0  0  0
   14.8309    9.4993    5.0666 H   0  0  0  0  0  0  0  0  0  0  0  0
   13.6639   10.1026    3.0259 H   0  0  0  0  0  0  0  0  0  0  0  0
   12.7156   10.6475    4.4189 H   0  0  0  0  0  0  0  0  0  0  0  0
   11.3305    9.5593    2.7282 H   0  0  0  0  0  0  0  0  0  0  0  0
   11.3091    8.7081    4.1391 H   0  0  0  0  0  0  0  0  0  0  0  0
   12.9496    8.0440    1.7741 H   0  0  0  0  0  0  0  0  0  0  0  0
   11.5086    7.1608    2.3004 H   0  0  0  0  0  0  0  0  0  0  0  0
   13.6356    6.0440    2.9624 H   0  0  0  0  0  0  0  0  0  0  0  0
   12.6462    6.4777    4.3638 H   0  0  0  0  0  0  0  0  0  0  0  0
   14.9754    7.0901    4.7135 H   0  0  0  0  0  0  0  0  0  0  0  0
  1  2  1  0
  1  6  1  0
  1  7  1  0
  1  8  1  0
  2  3  1  0
  2  9  1  0
  2 10  1  0
  3  4  1  0
  3 11  1  0
  3 12  1  0
  4  5  1  0
  4 13  1  0
  4 14  1  0
  5  6  1  0
  5 15  1  0
  5 16  1  0
  6 17  1  0
M  CHG  1   3   1
M  END
> <intraLJ>
1.222     

> <intraEL>
7.977     

> <intraDihe>
5.373     

> <interLJ>
0.000     

> <interEJ>
0.000     

> <gridLJ>
-2.201    

> <gridEL>
0.000     

> <totalE>
12.372    

> <LGFE>
-2.201  

> <LE>
-0.367  

> <SMILES>
C1C[NH2+]CCN1

> <atom.dprop.GFE>
-0.088 0.14 -1.8 -0.032 0.042 -0.46 0 0 0 0 0 0 0 0 0 0 0

> <atom.prop.CLASS>
PRPC PRPC MAMN PRPC PRPC GEND NCLA NCLA NCLA NCLA NCLA NCLA NCLA NCLA NCLA NCLA NCLA

$$$$
