30_1
     RDKit          3D

 15 15  0  0  1  0  0  0  0  0999 V2000
   11.3406   -5.5533  -15.1815 N   0  0  0  0  0  0  0  0  0  0  0  0
   10.0617   -5.1619  -14.5302 C   0  0  0  0  0  0  0  0  0  0  0  0
    9.5922   -6.2673  -13.5739 C   0  0  0  0  0  0  0  0  0  0  0  0
    8.0608   -6.1393  -13.6152 C   0  0  0  0  0  0  0  0  0  0  0  0
    7.7912   -5.6031  -14.9334 N   0  0  0  0  0  0  0  0  0  0  0  0
    8.8466   -5.0130  -15.4645 C   0  0  0  0  0  0  0  0  0  0  0  0
    8.8472   -4.4406  -16.5477 O   0  0  0  0  0  0  0  0  0  0  0  0
   12.1276   -5.2509  -14.6256 H   0  0  0  0  0  0  0  0  0  0  0  0
   11.3745   -5.1094  -16.0933 H   0  0  0  0  0  0  0  0  0  0  0  0
   10.1493   -4.2242  -13.9784 H   0  0  0  0  0  0  0  0  0  0  0  0
    9.8800   -7.2393  -13.9759 H   0  0  0  0  0  0  0  0  0  0  0  0
    9.9898   -6.1317  -12.5693 H   0  0  0  0  0  0  0  0  0  0  0  0
    7.7186   -5.4388  -12.8497 H   0  0  0  0  0  0  0  0  0  0  0  0
    7.5887   -7.1145  -13.4730 H   0  0  0  0  0  0  0  0  0  0  0  0
    6.9006   -5.6320  -15.4048 H   0  0  0  0  0  0  0  0  0  0  0  0
  1  2  1  0
  1  8  1  0
  1  9  1  0
  2  3  1  0
  2  6  1  0
  2 10  1  0
  3  4  1  0
  3 11  1  0
  3 12  1  0
  4  5  1  0
  4 13  1  0
  4 14  1  0
  5  6  1  0
  5 15  1  0
  6  7  2  0
M  END
> <intraLJ>
0.264     

> <intraEL>
2.285     

> <intraDihe>
8.139     

> <interLJ>
0.000     

> <interEJ>
0.000     

> <gridLJ>
-2.743    

> <gridEL>
0.000     

> <totalE>
7.945     

> <LGFE>
-2.743  

> <LE>
-0.392  

> <SMILES>
NC1CCNC1=O

> <atom.dprop.GFE>
-0.7 -0.28 -0.25 -0.2 -0.41 -0.001 -0.9 0 0 0 0 0 0 0 0

> <atom.prop.CLASS>
GEND PRPC PRPC PRPC GEND GEHC GENA NCLA NCLA NCLA NCLA NCLA NCLA NCLA NCLA

$$$$
