30_1
     RDKit          3D

 15 15  0  0  1  0  0  0  0  0999 V2000
   10.9103   15.0531  -36.8971 N   0  0  0  0  0  0  0  0  0  0  0  0
   10.6659   13.7854  -37.6361 C   0  0  0  0  0  0  0  0  0  0  0  0
    9.8814   14.0648  -38.9258 C   0  0  0  0  0  0  0  0  0  0  0  0
    9.0682   12.7758  -39.1275 C   0  0  0  0  0  0  0  0  0  0  0  0
    8.8799   12.2686  -37.7840 N   0  0  0  0  0  0  0  0  0  0  0  0
    9.7622   12.7568  -36.9312 C   0  0  0  0  0  0  0  0  0  0  0  0
    9.8353   12.4353  -35.7512 O   0  0  0  0  0  0  0  0  0  0  0  0
   11.7759   15.4769  -37.1984 H   0  0  0  0  0  0  0  0  0  0  0  0
   10.9630   14.8320  -35.9082 H   0  0  0  0  0  0  0  0  0  0  0  0
   11.5938   13.2678  -37.8862 H   0  0  0  0  0  0  0  0  0  0  0  0
    9.1961   14.8965  -38.7591 H   0  0  0  0  0  0  0  0  0  0  0  0
   10.5417   14.2708  -39.7668 H   0  0  0  0  0  0  0  0  0  0  0  0
    9.6381   12.0575  -39.7216 H   0  0  0  0  0  0  0  0  0  0  0  0
    8.1138   12.9944  -39.6128 H   0  0  0  0  0  0  0  0  0  0  0  0
    8.1844   11.5936  -37.5067 H   0  0  0  0  0  0  0  0  0  0  0  0
  1  2  1  0
  1  8  1  0
  1  9  1  0
  2  3  1  0
  2  6  1  0
  2 10  1  0
  3  4  1  0
  3 11  1  0
  3 12  1  0
  4  5  1  0
  4 13  1  0
  4 14  1  0
  5  6  1  0
  5 15  1  0
  6  7  2  0
M  END
> <intraLJ>
0.264     

> <intraEL>
2.285     

> <intraDihe>
8.139     

> <interLJ>
0.000     

> <interEJ>
0.000     

> <gridLJ>
-2.774    

> <gridEL>
0.000     

> <totalE>
7.915     

> <LGFE>
-2.774  

> <LE>
-0.396  

> <SMILES>
NC1CCNC1=O

> <atom.dprop.GFE>
-0.23 -0.12 -0.051 -0.079 -0.62 -0.12 -1.6 0 0 0 0 0 0 0 0

> <atom.prop.CLASS>
GEND PRPC PRPC PRPC GEND GEHC GENA NCLA NCLA NCLA NCLA NCLA NCLA NCLA NCLA

$$$$
