76_1
     RDKit          3D

 22 21  0  0  0  0  0  0  0  0999 V2000
  -22.9941    4.4356  -10.1985 C   0  0  0  0  0  0  0  0  0  0  0  0
  -21.9557    5.5644  -10.2098 C   0  0  0  0  0  0  0  0  0  0  0  0
  -21.3355    5.6523  -11.6130 C   0  0  0  0  0  0  0  0  0  0  0  0
  -20.9052    5.2995   -9.1146 C   0  0  0  0  0  0  0  0  0  0  0  0
  -21.4526    5.4770   -7.6883 C   0  0  0  0  0  0  0  0  0  0  0  0
  -20.3567    5.2434   -6.6505 C   0  0  0  0  0  0  0  0  0  0  0  0
  -20.9162    5.3937   -5.2953 N   0  0  0  0  0  0  0  0  0  0  0  0
  -23.7626    4.6293  -10.9469 H   0  0  0  0  0  0  0  0  0  0  0  0
  -23.4727    4.3795   -9.2189 H   0  0  0  0  0  0  0  0  0  0  0  0
  -22.5168    3.4793  -10.4170 H   0  0  0  0  0  0  0  0  0  0  0  0
  -22.4658    6.5060   -9.9909 H   0  0  0  0  0  0  0  0  0  0  0  0
  -20.7682    4.7464  -11.8313 H   0  0  0  0  0  0  0  0  0  0  0  0
  -20.6755    6.5163  -11.6827 H   0  0  0  0  0  0  0  0  0  0  0  0
  -22.1228    5.7684  -12.3598 H   0  0  0  0  0  0  0  0  0  0  0  0
  -20.0554    5.9701   -9.2603 H   0  0  0  0  0  0  0  0  0  0  0  0
  -20.5485    4.2736   -9.2199 H   0  0  0  0  0  0  0  0  0  0  0  0
  -22.2576    4.7613   -7.5133 H   0  0  0  0  0  0  0  0  0  0  0  0
  -21.8433    6.4855   -7.5613 H   0  0  0  0  0  0  0  0  0  0  0  0
  -19.5515    5.9656   -6.8054 H   0  0  0  0  0  0  0  0  0  0  0  0
  -19.9540    4.2353   -6.7709 H   0  0  0  0  0  0  0  0  0  0  0  0
  -21.3053    6.3201   -5.1790 H   0  0  0  0  0  0  0  0  0  0  0  0
  -20.2016    5.2376   -4.5979 H   0  0  0  0  0  0  0  0  0  0  0  0
  1  2  1  0
  1  8  1  0
  1  9  1  0
  1 10  1  0
  2  3  1  0
  2  4  1  0
  2 11  1  0
  3 12  1  0
  3 13  1  0
  3 14  1  0
  4  5  1  0
  4 15  1  0
  4 16  1  0
  5  6  1  0
  5 17  1  0
  5 18  1  0
  6  7  1  0
  6 19  1  0
  6 20  1  0
  7 21  1  0
  7 22  1  0
M  END
> <intraLJ>
0.135     

> <intraEL>
-1.014    

> <intraDihe>
0.411     

> <interLJ>
0.000     

> <interEJ>
0.000     

> <gridLJ>
-3.266    

> <gridEL>
0.000     

> <totalE>
-3.734    

> <LGFE>
-3.266  

> <LE>
-0.467  

> <SMILES>
CC(C)CCCN

> <atom.dprop.GFE>
-0.43 -0.51 -0.4 -0.51 -0.42 -0.18 -0.81 0 0 0 0 0 0 0 0 0 0 0 0 0 0 0

> <atom.prop.CLASS>
PRPC PRPC PRPC PRPC PRPC PRPC GEND NCLA NCLA NCLA NCLA NCLA NCLA NCLA NCLA NCLA NCLA NCLA NCLA NCLA NCLA NCLA

$$$$
