58
     RDKit          3D

 12 12  0  0  0  0  0  0  0  0999 V2000
  -16.7853    6.9518   -1.1207 O   0  0  0  0  0  0  0  0  0  0  0  0
  -17.5578    6.9643   -2.0598 C   0  0  0  0  0  0  0  0  0  0  0  0
  -18.0455    8.0597   -2.6517 N   0  0  0  0  0  0  0  0  0  0  0  0
  -19.0767    7.7369   -3.6286 C   0  0  0  0  0  0  0  0  0  0  0  0
  -18.8132    6.2370   -3.8650 C   0  0  0  0  0  0  0  0  0  0  0  0
  -18.0589    5.8853   -2.6700 N   0  0  0  0  0  0  0  0  0  0  0  0
  -17.9974    8.9352   -2.1172 H   0  0  0  0  0  0  0  0  0  0  0  0
  -18.9622    8.3081   -4.5513 H   0  0  0  0  0  0  0  0  0  0  0  0
  -20.0668    7.8790   -3.1938 H   0  0  0  0  0  0  0  0  0  0  0  0
  -18.1964    6.1011   -4.7554 H   0  0  0  0  0  0  0  0  0  0  0  0
  -19.7481    5.6798   -3.9405 H   0  0  0  0  0  0  0  0  0  0  0  0
  -17.5558    5.0015   -2.5334 H   0  0  0  0  0  0  0  0  0  0  0  0
  1  2  2  0
  2  3  1  0
  2  6  1  0
  3  4  1  0
  3  7  1  0
  4  5  1  0
  4  8  1  0
  4  9  1  0
  5  6  1  0
  5 10  1  0
  5 11  1  0
  6 12  1  0
M  END
> <intraLJ>
-0.226    

> <intraEL>
-6.154    

> <intraDihe>
4.218     

> <interLJ>
0.000     

> <interEJ>
0.000     

> <gridLJ>
-4.559    

> <gridEL>
0.000     

> <totalE>
-6.720    

> <LGFE>
-4.559  

> <LE>
-0.760  

> <SMILES>
O=C1NCCN1

> <atom.dprop.GFE>
-1.9 -0.39 -0.74 -0.34 -0.31 -0.89 0 0 0 0 0 0

> <atom.prop.CLASS>
GENA GEHC GEND PRPC PRPC GEND NCLA NCLA NCLA NCLA NCLA NCLA

$$$$
