35_1
     RDKit          3D

 10 10  0  0  0  0  0  0  0  0999 V2000
   -8.9814   11.1312    3.1238 N   0  0  0  0  0  0  0  0  0  0  0  0
   -9.8331   12.1702    3.3162 C   0  0  0  0  0  0  0  0  0  0  0  0
   -9.5731   13.1401    4.2000 N   0  0  0  0  0  0  0  0  0  0  0  0
  -10.5963   13.9083    4.0708 C   0  0  0  0  0  0  0  0  0  0  0  0
  -11.4132   13.4051    3.1399 N   0  0  0  0  0  0  0  0  0  0  0  0
  -10.9136   12.2674    2.6318 N   0  0  0  0  0  0  0  0  0  0  0  0
   -9.1130   10.7956    2.1660 H   0  0  0  0  0  0  0  0  0  0  0  0
   -8.0319   11.4547    3.3308 H   0  0  0  0  0  0  0  0  0  0  0  0
  -10.8228   14.8087    4.5822 H   0  0  0  0  0  0  0  0  0  0  0  0
  -12.3094   13.8306    2.8456 H   0  0  0  0  0  0  0  0  0  0  0  0
  1  2  1  0
  1  7  1  0
  1  8  1  0
  2  3  1  0
  2  6  2  0
  3  4  2  0
  4  5  1  0
  4  9  1  0
  5  6  1  0
  5 10  1  0
M  END
> <intraLJ>
0.124     

> <intraEL>
-9.860    

> <intraDihe>
2.848     

> <interLJ>
0.000     

> <interEJ>
0.000     

> <gridLJ>
-2.695    

> <gridEL>
0.000     

> <totalE>
-9.583    

> <LGFE>
-2.695  

> <LE>
-0.449  

> <SMILES>
Nc1nc[nH]n1

> <atom.dprop.GFE>
-1.3 -0.15 -0.55 -0.13 -0.32 -0.27 0 0 0 0

> <atom.prop.CLASS>
GEND GEHC GENA GEHC GEND GENA NCLA NCLA NCLA NCLA

$$$$
