35_3
     RDKit          3D

 10 10  0  0  0  0  0  0  0  0999 V2000
  -11.0329  -14.8108    2.2897 N   0  0  0  0  0  0  0  0  0  0  0  0
   -9.8997  -14.0585    2.0538 C   0  0  0  0  0  0  0  0  0  0  0  0
   -8.9498  -14.4021    1.2649 N   0  0  0  0  0  0  0  0  0  0  0  0
   -8.0839  -13.3640    1.3694 C   0  0  0  0  0  0  0  0  0  0  0  0
   -8.4485  -12.4111    2.1720 N   0  0  0  0  0  0  0  0  0  0  0  0
   -9.6348  -12.8674    2.6102 N   0  0  0  0  0  0  0  0  0  0  0  0
  -11.4291  -14.7544    3.2360 H   0  0  0  0  0  0  0  0  0  0  0  0
  -10.9260  -15.7719    1.9312 H   0  0  0  0  0  0  0  0  0  0  0  0
   -7.1679  -13.3300    0.8315 H   0  0  0  0  0  0  0  0  0  0  0  0
  -10.2601  -12.3736    3.2662 H   0  0  0  0  0  0  0  0  0  0  0  0
  1  2  1  0
  1  7  1  0
  1  8  1  0
  2  3  2  0
  2  6  1  0
  3  4  1  0
  4  5  2  0
  4  9  1  0
  5  6  1  0
  6 10  1  0
M  END
> <intraLJ>
-0.206    

> <intraEL>
-6.323    

> <intraDihe>
2.580     

> <interLJ>
0.000     

> <interEJ>
0.000     

> <gridLJ>
-2.517    

> <gridEL>
0.000     

> <totalE>
-6.466    

> <LGFE>
-2.517  

> <LE>
-0.420  

> <SMILES>
Nc1ncn[nH]1

> <atom.dprop.GFE>
-0.47 -0.09 -0.56 -0.16 -0.5 -0.74 0 0 0 0

> <atom.prop.CLASS>
GEND GEHC GENA GEHC GENA GEND NCLA NCLA NCLA NCLA

$$$$
