64_2
     RDKit          3D

 15 15  0  0  0  0  0  0  0  0999 V2000
   23.1534   12.1731  -32.7248 N   0  0  0  0  0  0  0  0  0  0  0  0
   22.9477   11.4920  -31.4607 C   0  0  0  0  0  0  0  0  0  0  0  0
   23.4109   10.1019  -31.8012 C   0  0  0  0  0  0  0  0  0  0  0  0
   24.7397    9.6498  -31.6568 C   0  0  0  0  0  0  0  0  0  0  0  0
   24.8951    8.3404  -32.0082 C   0  0  0  0  0  0  0  0  0  0  0  0
   23.4108    7.6298  -32.5266 S   0  0  0  0  0  0  0  0  0  0  0  0
   22.5789    9.1203  -32.2659 C   0  0  0  0  0  0  0  0  0  0  0  0
   22.8753   13.1394  -32.6472 H   0  0  0  0  0  0  0  0  0  0  0  0
   22.6141   11.6735  -33.4178 H   0  0  0  0  0  0  0  0  0  0  0  0
   24.1313   12.0737  -32.9560 H   0  0  0  0  0  0  0  0  0  0  0  0
   21.8972   11.4658  -31.1906 H   0  0  0  0  0  0  0  0  0  0  0  0
   23.5825   11.9044  -30.6837 H   0  0  0  0  0  0  0  0  0  0  0  0
   25.5501   10.2486  -31.3226 H   0  0  0  0  0  0  0  0  0  0  0  0
   25.7889    7.7690  -31.9950 H   0  0  0  0  0  0  0  0  0  0  0  0
   21.5392    9.1837  -32.4709 H   0  0  0  0  0  0  0  0  0  0  0  0
  1  2  1  0
  1  8  1  0
  1  9  1  0
  1 10  1  0
  2  3  1  0
  2 11  1  0
  2 12  1  0
  3  4  1  0
  3  7  2  0
  4  5  2  0
  4 13  1  0
  5  6  1  0
  5 14  1  0
  6  7  1  0
  7 15  1  0
M  CHG  1   1   1
M  END
> <intraLJ>
1.009     

> <intraEL>
2.903     

> <intraDihe>
9.539     

> <interLJ>
0.000     

> <interEJ>
0.000     

> <gridLJ>
-2.492    

> <gridEL>
0.000     

> <totalE>
10.959    

> <LGFE>
-2.492  

> <LE>
-0.356  

> <SMILES>
[NH3+]Cc1ccsc1

> <atom.dprop.GFE>
-1.9 0.29 -0.18 -0.097 -0.15 -0.2 -0.24 0 0 0 0 0 0 0 0

> <atom.prop.CLASS>
MAMN PRPC GEHC GEHC GEHC PRPC GEHC NCLA NCLA NCLA NCLA NCLA NCLA NCLA NCLA

$$$$
