23_1
     RDKit          3D

 11 11  0  0  0  0  0  0  0  0999 V2000
   20.9256   13.1290  -43.5757 O   0  0  0  0  0  0  0  0  0  0  0  0
   21.9379   13.1444  -42.7459 C   0  0  0  0  0  0  0  0  0  0  0  0
   21.9125   13.9596  -41.7017 N   0  0  0  0  0  0  0  0  0  0  0  0
   22.9556   13.9421  -40.8895 C   0  0  0  0  0  0  0  0  0  0  0  0
   24.0219   13.0924  -41.1467 C   0  0  0  0  0  0  0  0  0  0  0  0
   23.9669   12.2708  -42.2622 C   0  0  0  0  0  0  0  0  0  0  0  0
   22.9113   12.3045  -43.0630 N   0  0  0  0  0  0  0  0  0  0  0  0
   21.2314   12.4575  -44.2079 H   0  0  0  0  0  0  0  0  0  0  0  0
   22.9585   14.5864  -40.0466 H   0  0  0  0  0  0  0  0  0  0  0  0
   24.8603   13.0723  -40.5017 H   0  0  0  0  0  0  0  0  0  0  0  0
   24.7632   11.6065  -42.4912 H   0  0  0  0  0  0  0  0  0  0  0  0
  1  2  1  0
  1  8  1  0
  2  3  2  0
  2  7  1  0
  3  4  1  0
  4  5  2  0
  4  9  1  0
  5  6  1  0
  5 10  1  0
  6  7  2  0
  6 11  1  0
M  END
> <intraLJ>
20.130    

> <intraEL>
-14.212   

> <intraDihe>
6.700     

> <interLJ>
0.000     

> <interEJ>
0.000     

> <gridLJ>
-2.148    

> <gridEL>
0.000     

> <totalE>
10.470    

> <LGFE>
-2.148  

> <LE>
-0.307  

> <SMILES>
Oc1ncccn1

> <atom.dprop.GFE>
-0.67 -0.038 -0.56 0.018 -0.0057 -0.0063 -0.88 0 0 0 0

> <atom.prop.CLASS>
MEOO GEHC GENA BENC BENC BENC GENA NCLA NCLA NCLA NCLA

$$$$
