11_2
     RDKit          3D

 10 10  0  0  0  0  0  0  0  0999 V2000
  -12.3043   10.5751    4.0684 O   0  0  0  0  0  0  0  0  0  0  0  0
  -11.2473   10.1835    3.4712 C   0  0  0  0  0  0  0  0  0  0  0  0
  -10.2788   11.1882    2.9513 C   0  0  0  0  0  0  0  0  0  0  0  0
   -9.0831   10.2698    2.7209 C   0  0  0  0  0  0  0  0  0  0  0  0
   -9.6876    8.9667    2.5791 O   0  0  0  0  0  0  0  0  0  0  0  0
  -10.9146    8.9653    3.2338 N   0  0  0  0  0  0  0  0  0  0  0  0
  -10.0714   11.9308    3.7058 H   0  0  0  0  0  0  0  0  0  0  0  0
  -10.6616   11.5651    2.0158 H   0  0  0  0  0  0  0  0  0  0  0  0
   -8.4443   10.2684    3.6038 H   0  0  0  0  0  0  0  0  0  0  0  0
   -8.5288   10.5458    1.8264 H   0  0  0  0  0  0  0  0  0  0  0  0
  1  2  1  0
  2  3  1  0
  2  6  2  0
  3  4  1  0
  3  7  1  0
  3  8  1  0
  4  5  1  0
  4  9  1  0
  4 10  1  0
  5  6  1  0
M  CHG  1   1  -1
M  END
> <intraLJ>
-0.206    

> <intraEL>
-2.183    

> <intraDihe>
20.149    

> <interLJ>
0.000     

> <interEJ>
0.000     

> <gridLJ>
-2.537    

> <gridEL>
0.000     

> <totalE>
15.223    

> <LGFE>
-2.537  

> <LE>
-0.423  

> <SMILES>
[O-]C1=NOCC1

> <atom.dprop.GFE>
0 -0.77 -0.0027 0.21 -0.9 -1.1 0 0 0 0

> <atom.prop.CLASS>
NCLA ACEC PRPC PRPC GENA GENA NCLA NCLA NCLA NCLA

$$$$
