62_1
     RDKit          3D

 12 12  0  0  0  0  0  0  0  0999 V2000
  -39.9098    8.2283   23.4099 O   0  0  0  0  0  0  0  0  0  0  0  0
  -40.7661    7.4540   22.7949 C   0  0  0  0  0  0  0  0  0  0  0  0
  -41.8128    7.3763   23.4013 O   0  0  0  0  0  0  0  0  0  0  0  0
  -40.4308    6.8025   21.5429 C   0  0  0  0  0  0  0  0  0  0  0  0
  -39.1861    6.9405   20.8822 C   0  0  0  0  0  0  0  0  0  0  0  0
  -39.1112    6.2294   19.7211 C   0  0  0  0  0  0  0  0  0  0  0  0
  -40.5730    5.3641   19.4011 S   0  0  0  0  0  0  0  0  0  0  0  0
  -41.2845    5.9710   20.8491 C   0  0  0  0  0  0  0  0  0  0  0  0
  -40.4554    8.4769   24.1787 H   0  0  0  0  0  0  0  0  0  0  0  0
  -38.3906    7.5370   21.2533 H   0  0  0  0  0  0  0  0  0  0  0  0
  -38.2915    6.1712   19.0527 H   0  0  0  0  0  0  0  0  0  0  0  0
  -42.2728    5.6982   21.1195 H   0  0  0  0  0  0  0  0  0  0  0  0
  1  2  1  0
  1  9  1  0
  2  3  2  0
  2  4  1  0
  4  5  1  0
  4  8  2  0
  5  6  2  0
  5 10  1  0
  6  7  1  0
  6 11  1  0
  7  8  1  0
  8 12  1  0
M  END
> <intraLJ>
0.615     

> <intraEL>
-0.585    

> <intraDihe>
2.060     

> <interLJ>
0.000     

> <interEJ>
0.000     

> <gridLJ>
-3.034    

> <gridEL>
0.000     

> <totalE>
-0.944    

> <LGFE>
-3.034  

> <LE>
-0.379  

> <SMILES>
O=C(O)c1ccsc1

> <atom.dprop.GFE>
-1.1 0 -0.52 -0.18 -0.26 -0.25 -0.56 -0.12 0 0 0 0

> <atom.prop.CLASS>
MEOO NCLA GENA GEHC GEHC GEHC PRPC GEHC NCLA NCLA NCLA NCLA

$$$$
