52_2
     RDKit          3D

  9  9  0  0  0  0  0  0  0  0999 V2000
  -28.0426  -17.0870    5.3775 C   0  0  0  0  0  0  0  0  0  0  0  0
  -26.7542  -17.5901    5.9584 C   0  0  0  0  0  0  0  0  0  0  0  0
  -26.2580  -17.1523    7.0767 N   0  0  0  0  0  0  0  0  0  0  0  0
  -25.1376  -17.8393    7.2249 N   0  0  0  0  0  0  0  0  0  0  0  0
  -25.0021  -18.6629    6.1947 N   0  0  0  0  0  0  0  0  0  0  0  0
  -26.0345  -18.5046    5.3828 N   0  0  0  0  0  0  0  0  0  0  0  0
  -28.4522  -16.3500    6.0648 H   0  0  0  0  0  0  0  0  0  0  0  0
  -28.7015  -17.9460    5.2731 H   0  0  0  0  0  0  0  0  0  0  0  0
  -27.8054  -16.6467    4.4123 H   0  0  0  0  0  0  0  0  0  0  0  0
  1  2  1  0
  1  7  1  0
  1  8  1  0
  1  9  1  0
  2  3  1  0
  2  6  2  0
  3  4  1  0
  4  5  2  0
  5  6  1  0
M  CHG  1   3  -1
M  END
> <intraLJ>
0.213     

> <intraEL>
-1.734    

> <intraDihe>
1.640     

> <interLJ>
0.000     

> <interEJ>
0.000     

> <gridLJ>
-2.317    

> <gridEL>
0.000     

> <totalE>
-2.198    

> <LGFE>
-2.317  

> <LE>
-0.386  

> <SMILES>
Cc1nnn[n-]1

> <atom.dprop.GFE>
-0.21 -0.097 -0.19 -0.7 -0.61 -0.51 0 0 0

> <atom.prop.CLASS>
PRPC GEHC ACEC GENA GENA GENA NCLA NCLA NCLA

$$$$
