13
     RDKit          3D

 13 12  0  0  0  0  0  0  0  0999 V2000
   15.0238    9.1156    4.4309 C   0  0  0  0  0  0  0  0  0  0  0  0
   13.8179    8.4108    5.0882 C   0  0  0  0  0  0  0  0  0  0  0  0
   13.3850    7.2895    4.1668 C   0  0  0  0  0  0  0  0  0  0  0  0
   13.8539    6.1638    4.2246 O   0  0  0  0  0  0  0  0  0  0  0  0
   12.4163    7.5477    3.2513 N   0  0  0  0  0  0  0  0  0  0  0  0
   11.9749    6.5288    2.3829 O   0  0  0  0  0  0  0  0  0  0  0  0
   15.3302    9.9415    5.0737 H   0  0  0  0  0  0  0  0  0  0  0  0
   14.7151    9.4960    3.4547 H   0  0  0  0  0  0  0  0  0  0  0  0
   15.8427    8.4023    4.3174 H   0  0  0  0  0  0  0  0  0  0  0  0
   13.0008    9.1145    5.1706 H   0  0  0  0  0  0  0  0  0  0  0  0
   14.1176    7.9986    6.0419 H   0  0  0  0  0  0  0  0  0  0  0  0
   11.9734    8.4770    3.1675 H   0  0  0  0  0  0  0  0  0  0  0  0
   12.5081    5.7365    2.6381 H   0  0  0  0  0  0  0  0  0  0  0  0
  1  2  1  0
  1  7  1  0
  1  8  1  0
  1  9  1  0
  2  3  1  0
  2 10  1  0
  2 11  1  0
  3  4  2  0
  3  5  1  0
  5  6  1  0
  5 12  1  0
  6 13  1  0
M  END
> <intraLJ>
0.052     

> <intraEL>
2.408     

> <intraDihe>
5.949     

> <interLJ>
0.000     

> <interEJ>
0.000     

> <gridLJ>
-2.428    

> <gridEL>
0.000     

> <totalE>
5.982     

> <LGFE>
-2.428  

> <LE>
-0.405  

> <SMILES>
CCC(=O)NO

> <atom.dprop.GFE>
-0.13 0.033 0 -0.9 -0.81 -0.61 0 0 0 0 0 0 0

> <atom.prop.CLASS>
PRPC PRPC NCLA GENA GEND MEOO NCLA NCLA NCLA NCLA NCLA NCLA NCLA

$$$$
