53
     RDKit          3D

 16 16  0  0  0  0  0  0  0  0999 V2000
   11.4781   -5.6289    4.4226 O   0  0  0  0  0  0  0  0  0  0  0  0
   11.4215   -4.9092    5.4064 C   0  0  0  0  0  0  0  0  0  0  0  0
   12.4985   -3.8732    5.7196 C   0  0  0  0  0  0  0  0  0  0  0  0
   12.8935   -3.8895    7.2151 C   0  0  0  0  0  0  0  0  0  0  0  0
   11.6968   -4.1737    8.1605 C   0  0  0  0  0  0  0  0  0  0  0  0
   10.3427   -4.1395    7.4365 C   0  0  0  0  0  0  0  0  0  0  0  0
   10.4370   -5.0266    6.2885 N   0  0  0  0  0  0  0  0  0  0  0  0
   12.0978   -2.8926    5.4649 H   0  0  0  0  0  0  0  0  0  0  0  0
   13.3751   -4.0662    5.1003 H   0  0  0  0  0  0  0  0  0  0  0  0
   13.3467   -2.9300    7.4714 H   0  0  0  0  0  0  0  0  0  0  0  0
   13.6442   -4.6676    7.3693 H   0  0  0  0  0  0  0  0  0  0  0  0
   11.6902   -3.4484    8.9752 H   0  0  0  0  0  0  0  0  0  0  0  0
   11.8235   -5.1672    8.5938 H   0  0  0  0  0  0  0  0  0  0  0  0
   10.1207   -3.1215    7.1096 H   0  0  0  0  0  0  0  0  0  0  0  0
    9.5548   -4.4766    8.1135 H   0  0  0  0  0  0  0  0  0  0  0  0
    9.7385   -5.7288    6.1082 H   0  0  0  0  0  0  0  0  0  0  0  0
  1  2  2  0
  2  3  1  0
  2  7  1  0
  3  4  1  0
  3  8  1  0
  3  9  1  0
  4  5  1  0
  4 10  1  0
  4 11  1  0
  5  6  1  0
  5 12  1  0
  5 13  1  0
  6  7  1  0
  6 14  1  0
  6 15  1  0
  7 16  1  0
M  END
> <intraLJ>
0.344     

> <intraEL>
-2.405    

> <intraDihe>
10.947    

> <interLJ>
0.000     

> <interEJ>
0.000     

> <gridLJ>
-2.089    

> <gridEL>
0.000     

> <totalE>
6.796     

> <LGFE>
-2.089  

> <LE>
-0.298  

> <SMILES>
O=C1CCCCN1

> <atom.dprop.GFE>
-0.58 0 -0.26 -0.22 -0.25 -0.28 -0.5 0 0 0 0 0 0 0 0 0

> <atom.prop.CLASS>
GENA NCLA PRPC PRPC PRPC PRPC GEND NCLA NCLA NCLA NCLA NCLA NCLA NCLA NCLA NCLA

$$$$
