68_2
     RDKit          3D

 18 17  0  0  1  0  0  0  0  0999 V2000
  -45.9855   -0.7286   16.7774 C   0  0  0  0  0  0  0  0  0  0  0  0
  -45.3647   -0.5755   18.1624 C   0  0  0  0  0  0  0  0  0  0  0  0
  -46.1639   -1.3349   19.1346 N   0  0  0  0  0  0  0  0  0  0  0  0
  -45.2581    0.9093   18.5447 C   0  0  0  0  0  0  0  0  0  0  0  0
  -44.4321    1.1088   19.8062 C   0  0  0  0  0  0  0  0  0  0  0  0
  -44.0097    0.1481   20.4318 O   0  0  0  0  0  0  0  0  0  0  0  0
  -44.2199    2.3317   20.2454 N   0  0  0  0  0  0  0  0  0  0  0  0
  -45.3796   -0.1998   16.0404 H   0  0  0  0  0  0  0  0  0  0  0  0
  -46.9964   -0.3178   16.7592 H   0  0  0  0  0  0  0  0  0  0  0  0
  -46.0197   -1.7819   16.4957 H   0  0  0  0  0  0  0  0  0  0  0  0
  -44.3481   -0.9826   18.1338 H   0  0  0  0  0  0  0  0  0  0  0  0
  -47.1100   -0.9916   19.1774 H   0  0  0  0  0  0  0  0  0  0  0  0
  -45.7205   -1.1864   20.0463 H   0  0  0  0  0  0  0  0  0  0  0  0
  -46.1539   -2.3199   18.9190 H   0  0  0  0  0  0  0  0  0  0  0  0
  -46.2481    1.3347   18.7031 H   0  0  0  0  0  0  0  0  0  0  0  0
  -44.7754    1.4509   17.7307 H   0  0  0  0  0  0  0  0  0  0  0  0
  -43.6802    2.4281   21.0930 H   0  0  0  0  0  0  0  0  0  0  0  0
  -44.5676    3.1431   19.7623 H   0  0  0  0  0  0  0  0  0  0  0  0
  1  2  1  0
  1  8  1  0
  1  9  1  0
  1 10  1  0
  2  3  1  0
  2  4  1  0
  2 11  1  0
  3 12  1  0
  3 13  1  0
  3 14  1  0
  4  5  1  0
  4 15  1  0
  4 16  1  0
  5  6  2  0
  5  7  1  0
  7 17  1  0
  7 18  1  0
M  CHG  1   3   1
M  END
> <intraLJ>
2.030     

> <intraEL>
-9.287    

> <intraDihe>
0.183     

> <interLJ>
0.000     

> <interEJ>
0.000     

> <gridLJ>
-2.406    

> <gridEL>
0.000     

> <totalE>
-9.480    

> <LGFE>
-2.406  

> <LE>
-0.344  

> <SMILES>
CC([NH3+])CC(N)=O

> <atom.dprop.GFE>
-0.16 -0.14 -0.89 -0.1 0 -0.71 -0.4 0 0 0 0 0 0 0 0 0 0 0

> <atom.prop.CLASS>
PRPC PRPC MAMN PRPC NCLA GENA GEND NCLA NCLA NCLA NCLA NCLA NCLA NCLA NCLA NCLA NCLA NCLA

$$$$
