33
     RDKit          3D

 12 12  0  0  0  0  0  0  0  0999 V2000
   20.4471    3.8826  -49.5423 N   0  0  0  0  0  0  0  0  0  0  0  0
   19.1136    3.6198  -49.3923 C   0  0  0  0  0  0  0  0  0  0  0  0
   18.6265    2.3203  -49.3979 C   0  0  0  0  0  0  0  0  0  0  0  0
   17.2590    2.1497  -49.2502 C   0  0  0  0  0  0  0  0  0  0  0  0
   16.4645    3.2792  -49.1074 C   0  0  0  0  0  0  0  0  0  0  0  0
   16.9975    4.5112  -49.1095 N   0  0  0  0  0  0  0  0  0  0  0  0
   18.3117    4.6857  -49.2503 N   0  0  0  0  0  0  0  0  0  0  0  0
   20.6296    4.8702  -49.7647 H   0  0  0  0  0  0  0  0  0  0  0  0
   20.9748    3.1968  -50.0945 H   0  0  0  0  0  0  0  0  0  0  0  0
   19.2818    1.4968  -49.5046 H   0  0  0  0  0  0  0  0  0  0  0  0
   16.8269    1.1829  -49.2441 H   0  0  0  0  0  0  0  0  0  0  0  0
   15.4146    3.1951  -48.9916 H   0  0  0  0  0  0  0  0  0  0  0  0
  1  2  1  0
  1  8  1  0
  1  9  1  0
  2  3  2  0
  2  7  1  0
  3  4  1  0
  3 10  1  0
  4  5  2  0
  4 11  1  0
  5  6  1  0
  5 12  1  0
  6  7  2  0
M  END
> <intraLJ>
16.642    

> <intraEL>
-7.622    

> <intraDihe>
1.828     

> <interLJ>
0.000     

> <interEJ>
0.000     

> <gridLJ>
-2.288    

> <gridEL>
0.000     

> <totalE>
8.560     

> <LGFE>
-2.288  

> <LE>
-0.327  

> <SMILES>
Nc1cccnn1

> <atom.dprop.GFE>
-0.62 -0.22 -0.17 -0.13 -0.11 -0.45 -0.58 0 0 0 0 0

> <atom.prop.CLASS>
GEND GEHC BENC BENC BENC GENA GENA NCLA NCLA NCLA NCLA NCLA

$$$$
