17_1
     RDKit          3D

 15 15  0  0  0  0  0  0  0  0999 V2000
  -11.0450   -6.7431   11.0101 N   0  0  0  0  0  0  0  0  0  0  0  0
  -10.8093   -5.4477   11.2598 C   0  0  0  0  0  0  0  0  0  0  0  0
   -9.7839   -4.9802   10.8139 O   0  0  0  0  0  0  0  0  0  0  0  0
  -11.8609   -4.6766   12.0980 C   0  0  0  0  0  0  0  0  0  0  0  0
  -13.0973   -5.3877   12.4404 N   0  0  0  0  0  0  0  0  0  0  0  0
  -12.0037   -3.2038   11.8965 C   0  0  0  0  0  0  0  0  0  0  0  0
  -11.3479   -3.7517   13.1514 C   0  0  0  0  0  0  0  0  0  0  0  0
  -10.3677   -7.2563   10.4754 H   0  0  0  0  0  0  0  0  0  0  0  0
  -11.8920   -7.1517   11.3675 H   0  0  0  0  0  0  0  0  0  0  0  0
  -13.6362   -5.5218   11.5800 H   0  0  0  0  0  0  0  0  0  0  0  0
  -13.6575   -4.7808   13.0446 H   0  0  0  0  0  0  0  0  0  0  0  0
  -12.9941   -2.7842   12.0069 H   0  0  0  0  0  0  0  0  0  0  0  0
  -11.3435   -2.7473   11.1698 H   0  0  0  0  0  0  0  0  0  0  0  0
  -10.2734   -3.6449   13.2167 H   0  0  0  0  0  0  0  0  0  0  0  0
  -11.9159   -3.6954   14.0696 H   0  0  0  0  0  0  0  0  0  0  0  0
  1  2  1  0
  1  8  1  0
  1  9  1  0
  2  3  2  0
  2  4  1  0
  4  5  1  0
  4  6  1  0
  4  7  1  0
  5 10  1  0
  5 11  1  0
  6  7  1  0
  6 12  1  0
  6 13  1  0
  7 14  1  0
  7 15  1  0
M  END
> <intraLJ>
3.000     

> <intraEL>
0.466     

> <intraDihe>
8.485     

> <interLJ>
0.000     

> <interEJ>
0.000     

> <gridLJ>
-2.802    

> <gridEL>
0.000     

> <totalE>
9.150     

> <LGFE>
-2.802  

> <LE>
-0.400  

> <SMILES>
NC(=O)C1(N)CC1

> <atom.dprop.GFE>
-0.47 0 -0.83 -0.2 -0.72 -0.26 -0.32 0 0 0 0 0 0 0 0

> <atom.prop.CLASS>
GEND NCLA GENA PRPC GEND PRPC PRPC NCLA NCLA NCLA NCLA NCLA NCLA NCLA NCLA

$$$$
