63
     RDKit          3D

 11 11  0  0  0  0  0  0  0  0999 V2000
   -4.5102   16.5289    0.8822 O   0  0  0  0  0  0  0  0  0  0  0  0
   -3.8435   15.7357    0.2582 C   0  0  0  0  0  0  0  0  0  0  0  0
   -4.0714   14.2532    0.0326 C   0  0  0  0  0  0  0  0  0  0  0  0
   -2.8857   13.9664   -0.7928 N   0  0  0  0  0  0  0  0  0  0  0  0
   -2.1316   15.0648   -0.9986 C   0  0  0  0  0  0  0  0  0  0  0  0
   -1.1035   15.1171   -1.6407 O   0  0  0  0  0  0  0  0  0  0  0  0
   -2.7117   16.1089   -0.3688 N   0  0  0  0  0  0  0  0  0  0  0  0
   -4.9834   14.1105   -0.5293 H   0  0  0  0  0  0  0  0  0  0  0  0
   -4.0246   13.7340    0.9806 H   0  0  0  0  0  0  0  0  0  0  0  0
   -2.6041   13.0629   -1.1978 H   0  0  0  0  0  0  0  0  0  0  0  0
   -2.3337   17.0589   -0.3710 H   0  0  0  0  0  0  0  0  0  0  0  0
  1  2  2  0
  2  3  1  0
  2  7  1  0
  3  4  1  0
  3  8  1  0
  3  9  1  0
  4  5  1  0
  4 10  1  0
  5  6  2  0
  5  7  1  0
  7 11  1  0
M  END
> <intraLJ>
-0.609    

> <intraEL>
-7.501    

> <intraDihe>
0.000     

> <interLJ>
0.000     

> <interEJ>
0.000     

> <gridLJ>
-3.886    

> <gridEL>
0.000     

> <totalE>
-11.996   

> <LGFE>
-3.886  

> <LE>
-0.555  

> <SMILES>
O=C1CNC(=O)N1

> <atom.dprop.GFE>
-0.46 -0.17 -0.66 -0.94 -0.33 -0.99 -0.35 0 0 0 0

> <atom.prop.CLASS>
GENA GEHC PRPC GEND GEHC GENA GEND NCLA NCLA NCLA NCLA

$$$$
