11_1
     RDKit          3D

 11 11  0  0  0  0  0  0  0  0999 V2000
   -6.1525   -6.8725    2.4006 O   0  0  0  0  0  0  0  0  0  0  0  0
   -6.5052   -8.0326    2.3330 C   0  0  0  0  0  0  0  0  0  0  0  0
   -5.8621   -9.1477    1.5739 C   0  0  0  0  0  0  0  0  0  0  0  0
   -6.4926  -10.3629    2.2859 C   0  0  0  0  0  0  0  0  0  0  0  0
   -7.7602   -9.8654    2.8302 O   0  0  0  0  0  0  0  0  0  0  0  0
   -7.5762   -8.4888    2.9815 N   0  0  0  0  0  0  0  0  0  0  0  0
   -4.7884   -9.1287    1.6923 H   0  0  0  0  0  0  0  0  0  0  0  0
   -6.2106   -9.1056    0.5532 H   0  0  0  0  0  0  0  0  0  0  0  0
   -5.8532  -10.6878    3.1088 H   0  0  0  0  0  0  0  0  0  0  0  0
   -6.6626  -11.1884    1.5925 H   0  0  0  0  0  0  0  0  0  0  0  0
   -8.1868   -7.8904    3.5581 H   0  0  0  0  0  0  0  0  0  0  0  0
  1  2  2  0
  2  3  1  0
  2  6  1  0
  3  4  1  0
  3  7  1  0
  3  8  1  0
  4  5  1  0
  4  9  1  0
  4 10  1  0
  5  6  1  0
  6 11  1  0
M  END
> <intraLJ>
-0.418    

> <intraEL>
-2.154    

> <intraDihe>
5.561     

> <interLJ>
0.000     

> <interEJ>
0.000     

> <gridLJ>
-4.238    

> <gridEL>
0.000     

> <totalE>
-1.248    

> <LGFE>
-4.238  

> <LE>
-0.706  

> <SMILES>
O=C1CCON1

> <atom.dprop.GFE>
-1.3 -0.27 -0.19 -0.37 -1 -1.1 0 0 0 0 0

> <atom.prop.CLASS>
GENA GEHC PRPC PRPC GENA GEND NCLA NCLA NCLA NCLA NCLA

$$$$
