79
     RDKit          3D

 13 12  0  0  0  0  0  0  0  0999 V2000
    7.1087   16.4002  -10.6181 C   0  0  0  0  0  0  0  0  0  0  0  0
    7.9368   15.3655   -9.8603 C   0  0  0  0  0  0  0  0  0  0  0  0
    8.9088   16.1428   -9.1294 O   0  0  0  0  0  0  0  0  0  0  0  0
   10.1268   16.5015   -9.5695 C   0  0  0  0  0  0  0  0  0  0  0  0
   10.9035   17.1226   -8.8774 O   0  0  0  0  0  0  0  0  0  0  0  0
   10.4677   16.1477  -10.8167 N   0  0  0  0  0  0  0  0  0  0  0  0
    6.3399   15.8990  -11.2060 H   0  0  0  0  0  0  0  0  0  0  0  0
    7.7575   16.9725  -11.2831 H   0  0  0  0  0  0  0  0  0  0  0  0
    6.6360   17.0813   -9.9098 H   0  0  0  0  0  0  0  0  0  0  0  0
    8.4327   14.6950  -10.5642 H   0  0  0  0  0  0  0  0  0  0  0  0
    7.2983   14.8068   -9.1731 H   0  0  0  0  0  0  0  0  0  0  0  0
   11.4002   16.4185  -11.1451 H   0  0  0  0  0  0  0  0  0  0  0  0
    9.8229   15.6190  -11.4066 H   0  0  0  0  0  0  0  0  0  0  0  0
  1  2  1  0
  1  7  1  0
  1  8  1  0
  1  9  1  0
  2  3  1  0
  2 10  1  0
  2 11  1  0
  3  4  1  0
  4  5  2  0
  4  6  1  0
  6 12  1  0
  6 13  1  0
M  END
> <intraLJ>
1.635     

> <intraEL>
-6.771    

> <intraDihe>
0.218     

> <interLJ>
0.000     

> <interEJ>
0.000     

> <gridLJ>
-2.613    

> <gridEL>
0.000     

> <totalE>
-7.531    

> <LGFE>
-2.613  

> <LE>
-0.436  

> <SMILES>
CCOC(N)=O

> <atom.dprop.GFE>
-0.27 -0.27 -0.53 0 -0.68 -0.87 0 0 0 0 0 0 0

> <atom.prop.CLASS>
PRPC PRPC GENA NCLA GENA GEND NCLA NCLA NCLA NCLA NCLA NCLA NCLA

$$$$
