70_1
     RDKit          3D

 12 12  0  0  0  0  0  0  0  0999 V2000
   -6.2154   18.3639   -1.9250 N   0  0  0  0  0  0  0  0  0  0  0  0
   -7.0465   17.2340   -1.7821 C   0  0  0  0  0  0  0  0  0  0  0  0
   -7.1459   16.1323   -2.5605 C   0  0  0  0  0  0  0  0  0  0  0  0
   -8.1151   15.3465   -1.9534 C   0  0  0  0  0  0  0  0  0  0  0  0
   -8.5742   14.1538   -2.3507 O   0  0  0  0  0  0  0  0  0  0  0  0
   -8.6210   15.8529   -0.8755 N   0  0  0  0  0  0  0  0  0  0  0  0
   -7.9356   17.0514   -0.7622 N   0  0  0  0  0  0  0  0  0  0  0  0
   -6.5841   19.2465   -1.5389 H   0  0  0  0  0  0  0  0  0  0  0  0
   -5.8259   18.4761   -2.8763 H   0  0  0  0  0  0  0  0  0  0  0  0
   -6.6018   15.9125   -3.4393 H   0  0  0  0  0  0  0  0  0  0  0  0
   -9.2226   13.9714   -1.6446 H   0  0  0  0  0  0  0  0  0  0  0  0
   -8.0731   17.7239    0.0112 H   0  0  0  0  0  0  0  0  0  0  0  0
  1  2  1  0
  1  8  1  0
  1  9  1  0
  2  3  2  0
  2  7  1  0
  3  4  1  0
  3 10  1  0
  4  5  1  0
  4  6  2  0
  5 11  1  0
  6  7  1  0
  7 12  1  0
M  END
> <intraLJ>
-0.707    

> <intraEL>
-16.624   

> <intraDihe>
2.009     

> <interLJ>
0.000     

> <interEJ>
0.000     

> <gridLJ>
-2.137    

> <gridEL>
0.000     

> <totalE>
-17.459   

> <LGFE>
-2.137  

> <LE>
-0.305  

> <SMILES>
Nc1cc(O)n[nH]1

> <atom.dprop.GFE>
-0.14 -0.044 -0.095 -0.093 -0.91 -0.61 -0.25 0 0 0 0 0

> <atom.prop.CLASS>
GEND GEHC GEHC GEHC MEOO GENA GEND NCLA NCLA NCLA NCLA NCLA

$$$$
