73
     RDKit          3D

 13 13  0  0  0  0  0  0  0  0999 V2000
   22.5648   14.2649   -4.6246 O   0  0  0  0  0  0  0  0  0  0  0  0
   21.4107   14.6615   -4.6499 C   0  0  0  0  0  0  0  0  0  0  0  0
   20.8702   15.7092   -5.5952 C   0  0  0  0  0  0  0  0  0  0  0  0
   19.3455   15.5167   -5.4928 C   0  0  0  0  0  0  0  0  0  0  0  0
   19.1845   14.8977   -4.0971 C   0  0  0  0  0  0  0  0  0  0  0  0
   20.4365   14.1997   -3.8933 N   0  0  0  0  0  0  0  0  0  0  0  0
   21.2287   15.5364   -6.6086 H   0  0  0  0  0  0  0  0  0  0  0  0
   21.1596   16.6942   -5.2321 H   0  0  0  0  0  0  0  0  0  0  0  0
   19.0152   14.7997   -6.2466 H   0  0  0  0  0  0  0  0  0  0  0  0
   18.8033   16.4592   -5.5872 H   0  0  0  0  0  0  0  0  0  0  0  0
   18.3312   14.2161   -4.0694 H   0  0  0  0  0  0  0  0  0  0  0  0
   19.0690   15.6835   -3.3459 H   0  0  0  0  0  0  0  0  0  0  0  0
   20.5972   13.4890   -3.1979 H   0  0  0  0  0  0  0  0  0  0  0  0
  1  2  2  0
  2  3  1  0
  2  6  1  0
  3  4  1  0
  3  7  1  0
  3  8  1  0
  4  5  1  0
  4  9  1  0
  4 10  1  0
  5  6  1  0
  5 11  1  0
  5 12  1  0
  6 13  1  0
M  END
> <intraLJ>
-0.403    

> <intraEL>
-2.564    

> <intraDihe>
6.839     

> <interLJ>
0.000     

> <interEJ>
0.000     

> <gridLJ>
-3.462    

> <gridEL>
0.000     

> <totalE>
0.409     

> <LGFE>
-3.462  

> <LE>
-0.577  

> <SMILES>
O=C1CCCN1

> <atom.dprop.GFE>
-0.93 -0.23 -0.62 -0.62 -0.59 -0.47 0 0 0 0 0 0 0

> <atom.prop.CLASS>
GENA GEHC PRPC PRPC PRPC GEND NCLA NCLA NCLA NCLA NCLA NCLA NCLA

$$$$
