58
     RDKit          3D

 12 12  0  0  0  0  0  0  0  0999 V2000
  -43.1914   10.7820   21.3038 O   0  0  0  0  0  0  0  0  0  0  0  0
  -43.2393   10.9486   22.5075 C   0  0  0  0  0  0  0  0  0  0  0  0
  -43.8185   11.9822   23.1275 N   0  0  0  0  0  0  0  0  0  0  0  0
  -43.5521   11.9762   24.5596 C   0  0  0  0  0  0  0  0  0  0  0  0
  -43.0999   10.5194   24.7790 C   0  0  0  0  0  0  0  0  0  0  0  0
  -42.7218   10.1287   23.4281 N   0  0  0  0  0  0  0  0  0  0  0  0
  -43.9848   12.8253   22.5653 H   0  0  0  0  0  0  0  0  0  0  0  0
  -44.4443   12.2051   25.1447 H   0  0  0  0  0  0  0  0  0  0  0  0
  -42.7364   12.6608   24.7950 H   0  0  0  0  0  0  0  0  0  0  0  0
  -43.9399    9.9150   25.1266 H   0  0  0  0  0  0  0  0  0  0  0  0
  -42.2594   10.4680   25.4728 H   0  0  0  0  0  0  0  0  0  0  0  0
  -42.5210    9.1674   23.1305 H   0  0  0  0  0  0  0  0  0  0  0  0
  1  2  2  0
  2  3  1  0
  2  6  1  0
  3  4  1  0
  3  7  1  0
  4  5  1  0
  4  8  1  0
  4  9  1  0
  5  6  1  0
  5 10  1  0
  5 11  1  0
  6 12  1  0
M  END
> <intraLJ>
-0.226    

> <intraEL>
-6.154    

> <intraDihe>
4.218     

> <interLJ>
0.000     

> <interEJ>
0.000     

> <gridLJ>
-2.017    

> <gridEL>
0.000     

> <totalE>
-4.179    

> <LGFE>
-2.017  

> <LE>
-0.336  

> <SMILES>
O=C1NCCN1

> <atom.dprop.GFE>
-0.49 -0.17 -0.41 -0.25 -0.25 -0.45 0 0 0 0 0 0

> <atom.prop.CLASS>
GENA GEHC GEND PRPC PRPC GEND NCLA NCLA NCLA NCLA NCLA NCLA

$$$$
