35_2
     RDKit          3D

 10 10  0  0  0  0  0  0  0  0999 V2000
  -10.6656    3.3936   16.5249 N   0  0  0  0  0  0  0  0  0  0  0  0
  -10.0668    2.9828   15.3484 C   0  0  0  0  0  0  0  0  0  0  0  0
  -10.7437    2.4195   14.3567 N   0  0  0  0  0  0  0  0  0  0  0  0
   -9.8557    2.1573   13.3945 C   0  0  0  0  0  0  0  0  0  0  0  0
   -8.6827    2.5377   13.7768 N   0  0  0  0  0  0  0  0  0  0  0  0
   -8.8120    3.0725   15.0490 N   0  0  0  0  0  0  0  0  0  0  0  0
  -10.0342    3.9984   17.0724 H   0  0  0  0  0  0  0  0  0  0  0  0
  -11.6196    3.7648   16.4329 H   0  0  0  0  0  0  0  0  0  0  0  0
  -11.7509    2.2167   14.3566 H   0  0  0  0  0  0  0  0  0  0  0  0
  -10.1327    1.7004   12.4792 H   0  0  0  0  0  0  0  0  0  0  0  0
  1  2  1  0
  1  7  1  0
  1  8  1  0
  2  3  1  0
  2  6  2  0
  3  4  1  0
  3  9  1  0
  4  5  2  0
  4 10  1  0
  5  6  1  0
M  END
> <intraLJ>
-0.237    

> <intraEL>
-7.007    

> <intraDihe>
2.733     

> <interLJ>
0.000     

> <interEJ>
0.000     

> <gridLJ>
-2.082    

> <gridEL>
0.000     

> <totalE>
-6.594    

> <LGFE>
-2.082  

> <LE>
-0.347  

> <SMILES>
Nc1nnc[nH]1

> <atom.dprop.GFE>
-0.36 -0.16 -0.57 -0.17 -0.38 -0.44 0 0 0 0

> <atom.prop.CLASS>
GEND GEHC GEND GEHC GENA GENA NCLA NCLA NCLA NCLA

$$$$
