41
     RDKit          3D

  8  8  0  0  0  0  0  0  0  0999 V2000
   23.8128    7.8162  -30.7943 C   0  0  0  0  0  0  0  0  0  0  0  0
   23.3708    9.0853  -30.8515 C   0  0  0  0  0  0  0  0  0  0  0  0
   22.6780    9.1511  -31.9875 N   0  0  0  0  0  0  0  0  0  0  0  0
   22.6889    7.9662  -32.6123 N   0  0  0  0  0  0  0  0  0  0  0  0
   23.3912    7.1345  -31.8772 N   0  0  0  0  0  0  0  0  0  0  0  0
   24.4048    7.3926  -30.0231 H   0  0  0  0  0  0  0  0  0  0  0  0
   23.4937    9.9072  -30.1963 H   0  0  0  0  0  0  0  0  0  0  0  0
   22.1880    9.9831  -32.3648 H   0  0  0  0  0  0  0  0  0  0  0  0
  1  2  2  0
  1  5  1  0
  1  6  1  0
  2  3  1  0
  2  7  1  0
  3  4  1  0
  3  8  1  0
  4  5  2  0
M  END
> <intraLJ>
-0.290    

> <intraEL>
-0.628    

> <intraDihe>
0.000     

> <interLJ>
0.000     

> <interEJ>
0.000     

> <gridLJ>
-3.301    

> <gridEL>
0.000     

> <totalE>
-4.219    

> <LGFE>
-3.301  

> <LE>
-0.660  

> <SMILES>
c1c[nH]nn1

> <atom.dprop.GFE>
-0.19 -0.21 -1.1 -0.91 -0.92 0 0 0

> <atom.prop.CLASS>
GEHC GEHC GEND GENA GENA NCLA NCLA NCLA

$$$$
