48_2
     RDKit          3D

 18 17  0  0  1  0  0  0  0  0999 V2000
   19.6956    7.8209   -4.9711 C   0  0  0  0  0  0  0  0  0  0  0  0
   19.2418    7.8455   -6.4424 C   0  0  0  0  0  0  0  0  0  0  0  0
   19.5763    6.5623   -7.2216 C   0  0  0  0  0  0  0  0  0  0  0  0
   18.8686    5.4086   -6.6054 N   0  0  0  0  0  0  0  0  0  0  0  0
   21.1142    6.3184   -7.2741 C   0  0  0  0  0  0  0  0  0  0  0  0
   21.5445    5.2228   -6.9501 O   0  0  0  0  0  0  0  0  0  0  0  0
   21.9609    7.2533   -7.6850 N   0  0  0  0  0  0  0  0  0  0  0  0
   19.3283    8.7194   -4.4682 H   0  0  0  0  0  0  0  0  0  0  0  0
   20.7831    7.8176   -4.8889 H   0  0  0  0  0  0  0  0  0  0  0  0
   19.2826    6.9521   -4.4543 H   0  0  0  0  0  0  0  0  0  0  0  0
   19.6912    8.7056   -6.9431 H   0  0  0  0  0  0  0  0  0  0  0  0
   18.1594    7.9881   -6.4581 H   0  0  0  0  0  0  0  0  0  0  0  0
   19.2330    6.6927   -8.2500 H   0  0  0  0  0  0  0  0  0  0  0  0
   19.3176    5.2222   -5.7162 H   0  0  0  0  0  0  0  0  0  0  0  0
   19.0193    4.5833   -7.1688 H   0  0  0  0  0  0  0  0  0  0  0  0
   17.8879    5.6039   -6.4827 H   0  0  0  0  0  0  0  0  0  0  0  0
   22.9404    7.0005   -7.6906 H   0  0  0  0  0  0  0  0  0  0  0  0
   21.6754    8.1787   -7.9647 H   0  0  0  0  0  0  0  0  0  0  0  0
  1  2  1  0
  1  8  1  0
  1  9  1  0
  1 10  1  0
  2  3  1  0
  2 11  1  0
  2 12  1  0
  3  4  1  0
  3  5  1  0
  3 13  1  0
  4 14  1  0
  4 15  1  0
  4 16  1  0
  5  6  2  0
  5  7  1  0
  7 17  1  0
  7 18  1  0
M  CHG  1   4   1
M  END
> <intraLJ>
0.351     

> <intraEL>
1.542     

> <intraDihe>
0.666     

> <interLJ>
0.000     

> <interEJ>
0.000     

> <gridLJ>
-5.259    

> <gridEL>
0.000     

> <totalE>
-2.700    

> <LGFE>
-5.259  

> <LE>
-0.751  

> <SMILES>
CCC([NH3+])C(N)=O

> <atom.dprop.GFE>
-0.41 -0.44 -0.46 -1.8 0 -0.93 -1.3 0 0 0 0 0 0 0 0 0 0 0

> <atom.prop.CLASS>
PRPC PRPC PRPC MAMN NCLA GENA GEND NCLA NCLA NCLA NCLA NCLA NCLA NCLA NCLA NCLA NCLA NCLA

$$$$
