27_2
     RDKit          3D

 12 12  0  0  0  0  0  0  0  0999 V2000
  -33.3937   16.0952   33.8375 N   0  0  0  0  0  0  0  0  0  0  0  0
  -32.0923   15.9488   33.9104 C   0  0  0  0  0  0  0  0  0  0  0  0
  -31.2662   15.9523   32.8896 N   0  0  0  0  0  0  0  0  0  0  0  0
  -29.9765   15.7709   33.3565 C   0  0  0  0  0  0  0  0  0  0  0  0
  -30.0647   15.6580   34.6981 C   0  0  0  0  0  0  0  0  0  0  0  0
  -31.4066   15.7735   35.0167 N   0  0  0  0  0  0  0  0  0  0  0  0
  -33.9646   16.0787   34.6910 H   0  0  0  0  0  0  0  0  0  0  0  0
  -33.8486   16.2278   32.9270 H   0  0  0  0  0  0  0  0  0  0  0  0
  -31.5702   16.0747   31.9138 H   0  0  0  0  0  0  0  0  0  0  0  0
  -29.1263   15.7377   32.7196 H   0  0  0  0  0  0  0  0  0  0  0  0
  -29.3049   15.5096   35.4258 H   0  0  0  0  0  0  0  0  0  0  0  0
  -31.8365   15.7343   35.9504 H   0  0  0  0  0  0  0  0  0  0  0  0
  1  2  2  0
  1  7  1  0
  1  8  1  0
  2  3  1  0
  2  6  1  0
  3  4  1  0
  3  9  1  0
  4  5  2  0
  4 10  1  0
  5  6  1  0
  5 11  1  0
  6 12  1  0
M  CHG  1   1   1
M  END
> <intraLJ>
-0.384    

> <intraEL>
3.349     

> <intraDihe>
0.000     

> <interLJ>
0.000     

> <interEJ>
0.000     

> <gridLJ>
-3.628    

> <gridEL>
0.000     

> <totalE>
-0.663    

> <LGFE>
-3.628  

> <LE>
-0.605  

> <SMILES>
[NH2+]=c1[nH]cc[nH]1

> <atom.dprop.GFE>
-1.8 -1.8 0 0.01 0.03 0 0 0 0 0 0 0

> <atom.prop.CLASS>
MAMN MAMC NCLA GEHC GEHC NCLA NCLA NCLA NCLA NCLA NCLA NCLA

$$$$
