10_1
     RDKit          3D

  8  7  0  0  0  0  0  0  0  0999 V2000
  -18.4137   -3.4635   25.5151 O   0  0  0  0  0  0  0  0  0  0  0  0
  -19.3752   -4.3355   24.8652 P   0  0  0  0  0  0  0  0  0  0  0  0
  -19.3302   -4.1978   23.3613 O   0  0  0  0  0  0  0  0  0  0  0  0
  -19.1199   -5.7900   25.1837 O   0  0  0  0  0  0  0  0  0  0  0  0
  -20.7903   -4.0297   25.2954 O   0  0  0  0  0  0  0  0  0  0  0  0
  -18.6526   -3.5430   23.1668 H   0  0  0  0  0  0  0  0  0  0  0  0
  -18.3523   -5.8119   25.7660 H   0  0  0  0  0  0  0  0  0  0  0  0
  -20.7347   -3.3029   25.9246 H   0  0  0  0  0  0  0  0  0  0  0  0
  1  2  2  0
  2  3  1  0
  2  4  1  0
  2  5  1  0
  3  6  1  0
  4  7  1  0
  5  8  1  0
M  END
> <intraLJ>
-0.194    

> <intraEL>
-23.203   

> <intraDihe>
5.381     

> <interLJ>
0.000     

> <interEJ>
0.000     

> <gridLJ>
-3.695    

> <gridEL>
0.000     

> <totalE>
-21.711   

> <LGFE>
-3.695  

> <LE>
-0.739  

> <SMILES>
O=P(O)(O)O

> <atom.dprop.GFE>
-0.78 0 -1.1 -1.1 -0.73 0 0 0

> <atom.prop.CLASS>
GENA NCLA MEOO MEOO MEOO NCLA NCLA NCLA

$$$$
