34
     RDKit          3D

 19 19  0  0  0  0  0  0  0  0999 V2000
   13.7238   -2.9521  -38.3920 O   0  0  0  0  0  0  0  0  0  0  0  0
   12.6382   -3.7687  -38.7626 C   0  0  0  0  0  0  0  0  0  0  0  0
   11.3832   -2.8981  -38.8896 C   0  0  0  0  0  0  0  0  0  0  0  0
   10.1401   -3.7562  -39.1792 C   0  0  0  0  0  0  0  0  0  0  0  0
    9.9582   -4.8386  -38.1051 C   0  0  0  0  0  0  0  0  0  0  0  0
   11.2167   -5.7101  -37.9757 C   0  0  0  0  0  0  0  0  0  0  0  0
   12.4525   -4.8440  -37.6877 C   0  0  0  0  0  0  0  0  0  0  0  0
   13.8443   -2.2762  -39.0622 H   0  0  0  0  0  0  0  0  0  0  0  0
   12.8463   -4.2520  -39.7198 H   0  0  0  0  0  0  0  0  0  0  0  0
   11.5193   -2.1790  -39.6979 H   0  0  0  0  0  0  0  0  0  0  0  0
   11.2333   -2.3524  -37.9571 H   0  0  0  0  0  0  0  0  0  0  0  0
   10.2487   -4.2329  -40.1560 H   0  0  0  0  0  0  0  0  0  0  0  0
    9.2564   -3.1176  -39.2033 H   0  0  0  0  0  0  0  0  0  0  0  0
    9.1053   -5.4682  -38.3649 H   0  0  0  0  0  0  0  0  0  0  0  0
    9.7518   -4.3616  -37.1451 H   0  0  0  0  0  0  0  0  0  0  0  0
   11.3708   -6.2649  -38.9036 H   0  0  0  0  0  0  0  0  0  0  0  0
   11.0800   -6.4266  -37.1640 H   0  0  0  0  0  0  0  0  0  0  0  0
   12.3382   -4.3594  -36.7165 H   0  0  0  0  0  0  0  0  0  0  0  0
   13.3415   -5.4746  -37.6570 H   0  0  0  0  0  0  0  0  0  0  0  0
  1  2  1  0
  1  8  1  0
  2  3  1  0
  2  7  1  0
  2  9  1  0
  3  4  1  0
  3 10  1  0
  3 11  1  0
  4  5  1  0
  4 12  1  0
  4 13  1  0
  5  6  1  0
  5 14  1  0
  5 15  1  0
  6  7  1  0
  6 16  1  0
  6 17  1  0
  7 18  1  0
  7 19  1  0
M  END
> <intraLJ>
-0.471    

> <intraEL>
-1.198    

> <intraDihe>
8.631     

> <interLJ>
0.000     

> <interEJ>
0.000     

> <gridLJ>
-2.155    

> <gridEL>
0.000     

> <totalE>
4.807     

> <LGFE>
-2.155  

> <LE>
-0.308  

> <SMILES>
OC1CCCCC1

> <atom.dprop.GFE>
-0.68 -0.22 -0.27 -0.26 -0.24 -0.23 -0.25 0 0 0 0 0 0 0 0 0 0 0 0

> <atom.prop.CLASS>
MEOO PRPC PRPC PRPC PRPC PRPC PRPC NCLA NCLA NCLA NCLA NCLA NCLA NCLA NCLA NCLA NCLA NCLA NCLA

$$$$
