31_2
     RDKit          3D

 16 16  0  0  0  0  0  0  0  0999 V2000
   -6.9544   -7.2004    4.2486 O   0  0  0  0  0  0  0  0  0  0  0  0
   -6.9362   -7.0634    5.4567 C   0  0  0  0  0  0  0  0  0  0  0  0
   -7.9588   -7.8080    6.3569 C   0  0  0  0  0  0  0  0  0  0  0  0
   -7.6114   -7.8516    7.8243 N   0  0  0  0  0  0  0  0  0  0  0  0
   -7.0709   -6.5282    8.2661 C   0  0  0  0  0  0  0  0  0  0  0  0
   -5.8100   -6.1508    7.4564 C   0  0  0  0  0  0  0  0  0  0  0  0
   -6.0859   -6.2010    6.0186 N   0  0  0  0  0  0  0  0  0  0  0  0
   -8.0744   -8.8190    5.9610 H   0  0  0  0  0  0  0  0  0  0  0  0
   -8.9130   -7.2949    6.2208 H   0  0  0  0  0  0  0  0  0  0  0  0
   -6.9011   -8.5613    7.9619 H   0  0  0  0  0  0  0  0  0  0  0  0
   -8.4304   -8.1058    8.3645 H   0  0  0  0  0  0  0  0  0  0  0  0
   -6.8119   -6.5539    9.3274 H   0  0  0  0  0  0  0  0  0  0  0  0
   -7.8219   -5.7462    8.1164 H   0  0  0  0  0  0  0  0  0  0  0  0
   -4.9985   -6.8411    7.6996 H   0  0  0  0  0  0  0  0  0  0  0  0
   -5.4959   -5.1423    7.7361 H   0  0  0  0  0  0  0  0  0  0  0  0
   -5.4826   -5.7023    5.3730 H   0  0  0  0  0  0  0  0  0  0  0  0
  1  2  2  0
  2  3  1  0
  2  7  1  0
  3  4  1  0
  3  8  1  0
  3  9  1  0
  4  5  1  0
  4 10  1  0
  4 11  1  0
  5  6  1  0
  5 12  1  0
  5 13  1  0
  6  7  1  0
  6 14  1  0
  6 15  1  0
  7 16  1  0
M  CHG  1   4   1
M  END
> <intraLJ>
0.159     

> <intraEL>
4.369     

> <intraDihe>
10.053    

> <interLJ>
0.000     

> <interEJ>
0.000     

> <gridLJ>
-3.155    

> <gridEL>
0.000     

> <totalE>
11.426    

> <LGFE>
-3.155  

> <LE>
-0.451  

> <SMILES>
O=C1C[NH2+]CCN1

> <atom.dprop.GFE>
-1.1 0 -0.26 -0.59 -0.28 -0.19 -0.73 0 0 0 0 0 0 0 0 0

> <atom.prop.CLASS>
GENA NCLA PRPC MAMN PRPC PRPC GEND NCLA NCLA NCLA NCLA NCLA NCLA NCLA NCLA NCLA

$$$$
