11_3
     RDKit          3D

 11 11  0  0  0  0  0  0  0  0999 V2000
  -21.4009    2.2229   22.7231 O   0  0  0  0  0  0  0  0  0  0  0  0
  -20.1013    1.9599   22.8188 C   0  0  0  0  0  0  0  0  0  0  0  0
  -19.1175    2.9380   23.3577 C   0  0  0  0  0  0  0  0  0  0  0  0
  -17.8570    2.0735   23.2165 C   0  0  0  0  0  0  0  0  0  0  0  0
  -18.3453    0.8164   22.6387 O   0  0  0  0  0  0  0  0  0  0  0  0
  -19.6897    0.8453   22.4427 N   0  0  0  0  0  0  0  0  0  0  0  0
  -21.7458    1.3925   22.3418 H   0  0  0  0  0  0  0  0  0  0  0  0
  -19.3378    3.1429   24.3943 H   0  0  0  0  0  0  0  0  0  0  0  0
  -19.0743    3.8030   22.7124 H   0  0  0  0  0  0  0  0  0  0  0  0
  -17.4038    1.8838   24.1897 H   0  0  0  0  0  0  0  0  0  0  0  0
  -17.1393    2.5389   22.5402 H   0  0  0  0  0  0  0  0  0  0  0  0
  1  2  1  0
  1  7  1  0
  2  3  1  0
  2  6  2  0
  3  4  1  0
  3  8  1  0
  3  9  1  0
  4  5  1  0
  4 10  1  0
  4 11  1  0
  5  6  1  0
M  END
> <intraLJ>
-0.718    

> <intraEL>
-4.916    

> <intraDihe>
22.322    

> <interLJ>
0.000     

> <interEJ>
0.000     

> <gridLJ>
-3.671    

> <gridEL>
0.000     

> <totalE>
13.017    

> <LGFE>
-3.671  

> <LE>
-0.612  

> <SMILES>
OC1=NOCC1

> <atom.dprop.GFE>
-1.4 -0.32 -0.15 -0.4 -0.78 -0.6 0 0 0 0 0

> <atom.prop.CLASS>
MEOO GEHC PRPC PRPC GENA GENA NCLA NCLA NCLA NCLA NCLA

$$$$
