75
     RDKit          3D

 11 11  0  0  0  0  0  0  0  0999 V2000
   19.4111    2.8807  -49.5108 O   0  0  0  0  0  0  0  0  0  0  0  0
   18.2795    3.7203  -49.6719 S   0  0  0  0  0  0  0  0  0  0  0  0
   16.9770    3.2207  -49.4203 O   0  0  0  0  0  0  0  0  0  0  0  0
   18.2912    4.5772  -51.1751 C   0  0  0  0  0  0  0  0  0  0  0  0
   18.2637    5.9256  -50.2845 C   0  0  0  0  0  0  0  0  0  0  0  0
   18.5274    5.1321  -48.9549 N   0  0  0  0  0  0  0  0  0  0  0  0
   17.4209    4.5521  -51.8173 H   0  0  0  0  0  0  0  0  0  0  0  0
   19.1843    4.5529  -51.7864 H   0  0  0  0  0  0  0  0  0  0  0  0
   17.2912    6.3999  -50.2914 H   0  0  0  0  0  0  0  0  0  0  0  0
   19.0605    6.6129  -50.5336 H   0  0  0  0  0  0  0  0  0  0  0  0
   19.4636    5.3194  -48.6063 H   0  0  0  0  0  0  0  0  0  0  0  0
  1  2  2  0
  2  3  2  0
  2  4  1  0
  2  6  1  0
  4  5  1  0
  4  7  1  0
  4  8  1  0
  5  6  1  0
  5  9  1  0
  5 10  1  0
  6 11  1  0
M  END
> <intraLJ>
-0.439    

> <intraEL>
-3.883    

> <intraDihe>
14.792    

> <interLJ>
0.000     

> <interEJ>
0.000     

> <gridLJ>
-2.107    

> <gridEL>
0.000     

> <totalE>
8.363     

> <LGFE>
-2.107  

> <LE>
-0.351  

> <SMILES>
O=S1(=O)CCN1

> <atom.dprop.GFE>
-0.61 0 -0.47 -0.24 -0.35 -0.44 0 0 0 0 0

> <atom.prop.CLASS>
GENA NCLA GENA PRPC PRPC GEND NCLA NCLA NCLA NCLA NCLA

$$$$
