76_2
     RDKit          3D

 23 22  0  0  0  0  0  0  0  0999 V2000
  -25.9279  -17.7883   24.0257 C   0  0  0  0  0  0  0  0  0  0  0  0
  -25.2606  -17.2246   22.7638 C   0  0  0  0  0  0  0  0  0  0  0  0
  -25.3484  -18.2807   21.6510 C   0  0  0  0  0  0  0  0  0  0  0  0
  -23.8106  -16.8286   23.0962 C   0  0  0  0  0  0  0  0  0  0  0  0
  -23.0911  -16.1262   21.9321 C   0  0  0  0  0  0  0  0  0  0  0  0
  -21.7016  -15.6696   22.3700 C   0  0  0  0  0  0  0  0  0  0  0  0
  -21.0064  -15.0060   21.2476 N   0  0  0  0  0  0  0  0  0  0  0  0
  -26.9682  -18.0399   23.8163 H   0  0  0  0  0  0  0  0  0  0  0  0
  -25.9106  -17.0449   24.8248 H   0  0  0  0  0  0  0  0  0  0  0  0
  -25.4079  -18.6866   24.3638 H   0  0  0  0  0  0  0  0  0  0  0  0
  -25.8163  -16.3372   22.4514 H   0  0  0  0  0  0  0  0  0  0  0  0
  -24.7545  -19.1583   21.9114 H   0  0  0  0  0  0  0  0  0  0  0  0
  -24.9990  -17.8726   20.7035 H   0  0  0  0  0  0  0  0  0  0  0  0
  -26.3866  -18.5898   21.5170 H   0  0  0  0  0  0  0  0  0  0  0  0
  -23.2550  -17.7249   23.3825 H   0  0  0  0  0  0  0  0  0  0  0  0
  -23.8311  -16.1554   23.9569 H   0  0  0  0  0  0  0  0  0  0  0  0
  -23.6822  -15.2627   21.6185 H   0  0  0  0  0  0  0  0  0  0  0  0
  -22.9952  -16.8187   21.0938 H   0  0  0  0  0  0  0  0  0  0  0  0
  -21.1343  -16.5431   22.7058 H   0  0  0  0  0  0  0  0  0  0  0  0
  -21.8057  -14.9831   23.2158 H   0  0  0  0  0  0  0  0  0  0  0  0
  -20.9145  -15.6467   20.4707 H   0  0  0  0  0  0  0  0  0  0  0  0
  -20.0846  -14.7025   21.5347 H   0  0  0  0  0  0  0  0  0  0  0  0
  -21.5363  -14.2002   20.9424 H   0  0  0  0  0  0  0  0  0  0  0  0
  1  2  1  0
  1  8  1  0
  1  9  1  0
  1 10  1  0
  2  3  1  0
  2  4  1  0
  2 11  1  0
  3 12  1  0
  3 13  1  0
  3 14  1  0
  4  5  1  0
  4 15  1  0
  4 16  1  0
  5  6  1  0
  5 17  1  0
  5 18  1  0
  6  7  1  0
  6 19  1  0
  6 20  1  0
  7 21  1  0
  7 22  1  0
  7 23  1  0
M  CHG  1   7   1
M  END
> <intraLJ>
-0.500    

> <intraEL>
1.707     

> <intraDihe>
0.162     

> <interLJ>
0.000     

> <interEJ>
0.000     

> <gridLJ>
-2.367    

> <gridEL>
0.000     

> <totalE>
-0.999    

> <LGFE>
-2.367  

> <LE>
-0.338  

> <SMILES>
CC(C)CCC[NH3+]

> <atom.dprop.GFE>
-0.16 -0.18 -0.022 -0.23 -0.11 0.012 -1.7 0 0 0 0 0 0 0 0 0 0 0 0 0 0 0 0

> <atom.prop.CLASS>
PRPC PRPC PRPC PRPC PRPC PRPC MAMN NCLA NCLA NCLA NCLA NCLA NCLA NCLA NCLA NCLA NCLA NCLA NCLA NCLA NCLA NCLA NCLA

$$$$
