49_2
     RDKit          3D

 19 19  0  0  1  0  0  0  0  0999 V2000
   -3.1511   12.8431    8.4026 O   0  0  0  0  0  0  0  0  0  0  0  0
   -2.2948   11.7145    8.5327 C   0  0  0  0  0  0  0  0  0  0  0  0
   -0.8367   12.2053    8.5964 C   0  0  0  0  0  0  0  0  0  0  0  0
   -0.4755   13.0652    9.8070 C   0  0  0  0  0  0  0  0  0  0  0  0
    0.6905   13.9383    9.2954 C   0  0  0  0  0  0  0  0  0  0  0  0
    0.8427   13.5562    7.8235 C   0  0  0  0  0  0  0  0  0  0  0  0
   -0.4789   13.0395    7.4406 N   0  0  0  0  0  0  0  0  0  0  0  0
   -4.0635   12.5572    8.2593 H   0  0  0  0  0  0  0  0  0  0  0  0
   -2.5429   11.1724    9.4481 H   0  0  0  0  0  0  0  0  0  0  0  0
   -2.4134   11.0457    7.6788 H   0  0  0  0  0  0  0  0  0  0  0  0
   -0.1870   11.3251    8.6033 H   0  0  0  0  0  0  0  0  0  0  0  0
   -1.3159   13.7011   10.0929 H   0  0  0  0  0  0  0  0  0  0  0  0
   -0.1715   12.4408   10.6482 H   0  0  0  0  0  0  0  0  0  0  0  0
    1.6144   13.7326    9.8397 H   0  0  0  0  0  0  0  0  0  0  0  0
    0.4351   14.9964    9.3834 H   0  0  0  0  0  0  0  0  0  0  0  0
    1.5881   12.7576    7.7536 H   0  0  0  0  0  0  0  0  0  0  0  0
    1.1609   14.4034    7.2091 H   0  0  0  0  0  0  0  0  0  0  0  0
   -0.5111   12.4908    6.5879 H   0  0  0  0  0  0  0  0  0  0  0  0
   -1.1505   13.7888    7.3741 H   0  0  0  0  0  0  0  0  0  0  0  0
  1  2  1  0
  1  8  1  0
  2  3  1  0
  2  9  1  0
  2 10  1  0
  3  4  1  0
  3  7  1  0
  3 11  1  0
  4  5  1  0
  4 12  1  0
  4 13  1  0
  5  6  1  0
  5 14  1  0
  5 15  1  0
  6  7  1  0
  6 16  1  0
  6 17  1  0
  7 18  1  0
  7 19  1  0
M  CHG  1   7   1
M  END
> <intraLJ>
1.110     

> <intraEL>
7.854     

> <intraDihe>
8.253     

> <interLJ>
0.000     

> <interEJ>
0.000     

> <gridLJ>
-3.079    

> <gridEL>
0.000     

> <totalE>
14.138    

> <LGFE>
-3.079  

> <LE>
-0.440  

> <SMILES>
OCC1CCC[NH2+]1

> <atom.dprop.GFE>
-0.2 -0.19 -0.37 -0.29 -0.33 -0.32 -1.4 0 0 0 0 0 0 0 0 0 0 0 0

> <atom.prop.CLASS>
MEOO PRPC PRPC PRPC PRPC PRPC MAMN NCLA NCLA NCLA NCLA NCLA NCLA NCLA NCLA NCLA NCLA NCLA NCLA

$$$$
