64_2
     RDKit          3D

 15 15  0  0  0  0  0  0  0  0999 V2000
   11.8179    7.2263  -45.7903 N   0  0  0  0  0  0  0  0  0  0  0  0
   12.2440    7.9254  -44.5929 C   0  0  0  0  0  0  0  0  0  0  0  0
   13.3229    7.0064  -44.0885 C   0  0  0  0  0  0  0  0  0  0  0  0
   14.6836    7.1065  -44.4482 C   0  0  0  0  0  0  0  0  0  0  0  0
   15.4644    6.1713  -43.8332 C   0  0  0  0  0  0  0  0  0  0  0  0
   14.5456    5.1429  -42.7963 S   0  0  0  0  0  0  0  0  0  0  0  0
   13.0959    5.9878  -43.2039 C   0  0  0  0  0  0  0  0  0  0  0  0
   11.0759    7.7366  -46.2442 H   0  0  0  0  0  0  0  0  0  0  0  0
   11.5274    6.3025  -45.5023 H   0  0  0  0  0  0  0  0  0  0  0  0
   12.6323    7.1301  -46.3795 H   0  0  0  0  0  0  0  0  0  0  0  0
   11.4456    7.9801  -43.8602 H   0  0  0  0  0  0  0  0  0  0  0  0
   12.6752    8.8913  -44.8336 H   0  0  0  0  0  0  0  0  0  0  0  0
   15.0790    7.8178  -45.1298 H   0  0  0  0  0  0  0  0  0  0  0  0
   16.5109    6.0324  -43.9382 H   0  0  0  0  0  0  0  0  0  0  0  0
   12.1737    5.6849  -42.7742 H   0  0  0  0  0  0  0  0  0  0  0  0
  1  2  1  0
  1  8  1  0
  1  9  1  0
  1 10  1  0
  2  3  1  0
  2 11  1  0
  2 12  1  0
  3  4  1  0
  3  7  2  0
  4  5  2  0
  4 13  1  0
  5  6  1  0
  5 14  1  0
  6  7  1  0
  7 15  1  0
M  CHG  1   1   1
M  END
> <intraLJ>
1.009     

> <intraEL>
2.903     

> <intraDihe>
9.539     

> <interLJ>
0.000     

> <interEJ>
0.000     

> <gridLJ>
-2.457    

> <gridEL>
0.000     

> <totalE>
10.994    

> <LGFE>
-2.457  

> <LE>
-0.351  

> <SMILES>
[NH3+]Cc1ccsc1

> <atom.dprop.GFE>
-1.3 -0.15 -0.16 -0.21 -0.17 -0.33 -0.16 0 0 0 0 0 0 0 0

> <atom.prop.CLASS>
MAMN PRPC GEHC GEHC GEHC PRPC GEHC NCLA NCLA NCLA NCLA NCLA NCLA NCLA NCLA

$$$$
