71_1
     RDKit          3D

 18 18  0  0  0  0  0  0  0  0999 V2000
  -34.5040   -6.1588   18.6189 C   0  0  0  0  0  0  0  0  0  0  0  0
  -33.8753   -4.9660   17.8896 C   0  0  0  0  0  0  0  0  0  0  0  0
  -33.0138   -5.3516   16.7461 N   0  0  0  0  0  0  0  0  0  0  0  0
  -32.2306   -6.6107   16.8704 C   0  0  0  0  0  0  0  0  0  0  0  0
  -31.5907   -6.8260   18.2495 C   0  0  0  0  0  0  0  0  0  0  0  0
  -32.4833   -7.5225   19.1174 O   0  0  0  0  0  0  0  0  0  0  0  0
  -33.5490   -6.7563   19.6645 C   0  0  0  0  0  0  0  0  0  0  0  0
  -34.8177   -6.9220   17.9066 H   0  0  0  0  0  0  0  0  0  0  0  0
  -35.3888   -5.8024   19.1434 H   0  0  0  0  0  0  0  0  0  0  0  0
  -33.2893   -4.3933   18.6109 H   0  0  0  0  0  0  0  0  0  0  0  0
  -34.6683   -4.3128   17.5186 H   0  0  0  0  0  0  0  0  0  0  0  0
  -32.4182   -4.5716   16.4991 H   0  0  0  0  0  0  0  0  0  0  0  0
  -31.4549   -6.6269   16.1036 H   0  0  0  0  0  0  0  0  0  0  0  0
  -32.8873   -7.4618   16.6820 H   0  0  0  0  0  0  0  0  0  0  0  0
  -31.2736   -5.8757   18.6804 H   0  0  0  0  0  0  0  0  0  0  0  0
  -30.7096   -7.4528   18.1137 H   0  0  0  0  0  0  0  0  0  0  0  0
  -34.1283   -7.4192   20.3099 H   0  0  0  0  0  0  0  0  0  0  0  0
  -33.1448   -5.9596   20.2923 H   0  0  0  0  0  0  0  0  0  0  0  0
  1  2  1  0
  1  7  1  0
  1  8  1  0
  1  9  1  0
  2  3  1  0
  2 10  1  0
  2 11  1  0
  3  4  1  0
  3 12  1  0
  4  5  1  0
  4 13  1  0
  4 14  1  0
  5  6  1  0
  5 15  1  0
  5 16  1  0
  6  7  1  0
  7 17  1  0
  7 18  1  0
M  END
> <intraLJ>
0.655     

> <intraEL>
0.902     

> <intraDihe>
9.506     

> <interLJ>
0.000     

> <interEJ>
0.000     

> <gridLJ>
-2.003    

> <gridEL>
0.000     

> <totalE>
9.060     

> <LGFE>
-2.003  

> <LE>
-0.286  

> <SMILES>
C1CNCCOC1

> <atom.dprop.GFE>
-0.19 -0.099 -0.58 -0.22 -0.29 -0.37 -0.26 0 0 0 0 0 0 0 0 0 0 0

> <atom.prop.CLASS>
PRPC PRPC GEND PRPC PRPC GENA PRPC NCLA NCLA NCLA NCLA NCLA NCLA NCLA NCLA NCLA NCLA NCLA

$$$$
