35_3
     RDKit          3D

 10 10  0  0  0  0  0  0  0  0999 V2000
  -18.1142   -3.1253   25.1938 N   0  0  0  0  0  0  0  0  0  0  0  0
  -18.7395   -4.3558   25.2202 C   0  0  0  0  0  0  0  0  0  0  0  0
  -18.1348   -5.4812   25.1180 N   0  0  0  0  0  0  0  0  0  0  0  0
  -19.1514   -6.3750   25.1948 C   0  0  0  0  0  0  0  0  0  0  0  0
  -20.3358   -5.8630   25.3377 N   0  0  0  0  0  0  0  0  0  0  0  0
  -20.0595   -4.5475   25.3590 N   0  0  0  0  0  0  0  0  0  0  0  0
  -18.6414   -2.3548   24.7650 H   0  0  0  0  0  0  0  0  0  0  0  0
  -17.1399   -3.2070   24.8652 H   0  0  0  0  0  0  0  0  0  0  0  0
  -18.9924   -7.4246   25.1421 H   0  0  0  0  0  0  0  0  0  0  0  0
  -20.7532   -3.7927   25.4782 H   0  0  0  0  0  0  0  0  0  0  0  0
  1  2  1  0
  1  7  1  0
  1  8  1  0
  2  3  2  0
  2  6  1  0
  3  4  1  0
  4  5  2  0
  4  9  1  0
  5  6  1  0
  6 10  1  0
M  END
> <intraLJ>
-0.206    

> <intraEL>
-6.323    

> <intraDihe>
2.580     

> <interLJ>
0.000     

> <interEJ>
0.000     

> <gridLJ>
-3.828    

> <gridEL>
0.000     

> <totalE>
-7.777    

> <LGFE>
-3.828  

> <LE>
-0.638  

> <SMILES>
Nc1ncn[nH]1

> <atom.dprop.GFE>
-0.98 -0.21 -0.38 -0.18 -1.5 -0.61 0 0 0 0

> <atom.prop.CLASS>
GEND GEHC GENA GEHC GENA GEND NCLA NCLA NCLA NCLA

$$$$
