13
     RDKit          3D

 13 12  0  0  0  0  0  0  0  0999 V2000
  -22.0130   -8.4386   26.4940 C   0  0  0  0  0  0  0  0  0  0  0  0
  -20.4799   -8.3221   26.6312 C   0  0  0  0  0  0  0  0  0  0  0  0
  -20.1050   -6.8787   26.3669 C   0  0  0  0  0  0  0  0  0  0  0  0
  -19.8181   -6.0934   27.2566 O   0  0  0  0  0  0  0  0  0  0  0  0
  -20.0672   -6.4498   25.0794 N   0  0  0  0  0  0  0  0  0  0  0  0
  -19.7105   -5.1174   24.7884 O   0  0  0  0  0  0  0  0  0  0  0  0
  -22.2937   -9.4795   26.6581 H   0  0  0  0  0  0  0  0  0  0  0  0
  -22.2969   -8.1292   25.4857 H   0  0  0  0  0  0  0  0  0  0  0  0
  -22.4930   -7.7971   27.2359 H   0  0  0  0  0  0  0  0  0  0  0  0
  -20.0110   -8.9365   25.8747 H   0  0  0  0  0  0  0  0  0  0  0  0
  -20.1866   -8.5927   27.6362 H   0  0  0  0  0  0  0  0  0  0  0  0
  -20.2854   -7.0740   24.2859 H   0  0  0  0  0  0  0  0  0  0  0  0
  -19.5322   -4.7095   25.6711 H   0  0  0  0  0  0  0  0  0  0  0  0
  1  2  1  0
  1  7  1  0
  1  8  1  0
  1  9  1  0
  2  3  1  0
  2 10  1  0
  2 11  1  0
  3  4  2  0
  3  5  1  0
  5  6  1  0
  5 12  1  0
  6 13  1  0
M  END
> <intraLJ>
0.081     

> <intraEL>
2.378     

> <intraDihe>
5.909     

> <interLJ>
0.000     

> <interEJ>
0.000     

> <gridLJ>
-3.417    

> <gridEL>
0.000     

> <totalE>
4.951     

> <LGFE>
-3.417  

> <LE>
-0.570  

> <SMILES>
CCC(=O)NO

> <atom.dprop.GFE>
-0.42 -0.42 0 -0.75 -0.7 -1.1 0 0 0 0 0 0 0

> <atom.prop.CLASS>
PRPC PRPC NCLA GENA GEND MEOO NCLA NCLA NCLA NCLA NCLA NCLA NCLA

$$$$
