31_1
     RDKit          3D

 15 15  0  0  0  0  0  0  0  0999 V2000
   22.8698   15.0888   -4.0310 O   0  0  0  0  0  0  0  0  0  0  0  0
   21.6975   15.0597   -4.3787 C   0  0  0  0  0  0  0  0  0  0  0  0
   20.6496   16.0234   -3.7602 C   0  0  0  0  0  0  0  0  0  0  0  0
   19.3402   16.1224   -4.4917 N   0  0  0  0  0  0  0  0  0  0  0  0
   18.9349   14.7789   -4.9840 C   0  0  0  0  0  0  0  0  0  0  0  0
   20.0030   14.2021   -5.9302 C   0  0  0  0  0  0  0  0  0  0  0  0
   21.2963   14.1343   -5.2509 N   0  0  0  0  0  0  0  0  0  0  0  0
   21.1011   17.0132   -3.6825 H   0  0  0  0  0  0  0  0  0  0  0  0
   20.4526   15.6671   -2.7496 H   0  0  0  0  0  0  0  0  0  0  0  0
   19.4498   16.7519   -5.2779 H   0  0  0  0  0  0  0  0  0  0  0  0
   17.9851   14.8532   -5.5172 H   0  0  0  0  0  0  0  0  0  0  0  0
   18.8016   14.0998   -4.1389 H   0  0  0  0  0  0  0  0  0  0  0  0
   20.0833   14.8411   -6.8110 H   0  0  0  0  0  0  0  0  0  0  0  0
   19.6980   13.2026   -6.2454 H   0  0  0  0  0  0  0  0  0  0  0  0
   22.0088   13.5047   -5.5810 H   0  0  0  0  0  0  0  0  0  0  0  0
  1  2  2  0
  2  3  1  0
  2  7  1  0
  3  4  1  0
  3  8  1  0
  3  9  1  0
  4  5  1  0
  4 10  1  0
  5  6  1  0
  5 11  1  0
  5 12  1  0
  6  7  1  0
  6 13  1  0
  6 14  1  0
  7 15  1  0
M  END
> <intraLJ>
0.615     

> <intraEL>
3.232     

> <intraDihe>
15.833    

> <interLJ>
0.000     

> <interEJ>
0.000     

> <gridLJ>
-3.289    

> <gridEL>
0.000     

> <totalE>
16.391    

> <LGFE>
-3.289  

> <LE>
-0.470  

> <SMILES>
O=C1CNCCN1

> <atom.dprop.GFE>
-0.93 0 -0.57 -0.18 -0.67 -0.46 -0.49 0 0 0 0 0 0 0 0

> <atom.prop.CLASS>
GENA NCLA PRPC GEND PRPC PRPC GEND NCLA NCLA NCLA NCLA NCLA NCLA NCLA NCLA

$$$$
