60_2
     RDKit          3D

 14 14  0  0  0  0  0  0  0  0999 V2000
   22.7924    8.4296  -31.9835 N   0  0  0  0  0  0  0  0  0  0  0  0
   23.1630    9.6610  -32.3690 C   0  0  0  0  0  0  0  0  0  0  0  0
   22.9753   10.7484  -31.5071 C   0  0  0  0  0  0  0  0  0  0  0  0
   23.3608   12.0052  -31.9193 C   0  0  0  0  0  0  0  0  0  0  0  0
   23.9162   12.1679  -33.1545 N   0  0  0  0  0  0  0  0  0  0  0  0
   24.1102   11.1235  -34.0122 C   0  0  0  0  0  0  0  0  0  0  0  0
   23.7360    9.8535  -33.6320 C   0  0  0  0  0  0  0  0  0  0  0  0
   22.9186    7.6080  -32.5996 H   0  0  0  0  0  0  0  0  0  0  0  0
   22.3652    8.2578  -31.0557 H   0  0  0  0  0  0  0  0  0  0  0  0
   22.5408   10.5946  -30.5527 H   0  0  0  0  0  0  0  0  0  0  0  0
   23.2598   12.8913  -31.3387 H   0  0  0  0  0  0  0  0  0  0  0  0
   24.2029   13.1197  -33.4531 H   0  0  0  0  0  0  0  0  0  0  0  0
   24.5521   11.3717  -34.9472 H   0  0  0  0  0  0  0  0  0  0  0  0
   23.8752    9.0260  -34.2790 H   0  0  0  0  0  0  0  0  0  0  0  0
  1  2  1  0
  1  8  1  0
  1  9  1  0
  2  3  2  0
  2  7  1  0
  3  4  1  0
  3 10  1  0
  4  5  2  0
  4 11  1  0
  5  6  1  0
  5 12  1  0
  6  7  2  0
  6 13  1  0
  7 14  1  0
M  CHG  1   5   1
M  END
> <intraLJ>
8.489     

> <intraEL>
2.031     

> <intraDihe>
0.000     

> <interLJ>
0.000     

> <interEJ>
0.000     

> <gridLJ>
-2.270    

> <gridEL>
0.000     

> <totalE>
8.250     

> <LGFE>
-2.270  

> <LE>
-0.324  

> <SMILES>
Nc1cc[nH+]cc1

> <atom.dprop.GFE>
-0.79 -0.048 0.038 0.18 -1.9 0.23 0.038 0 0 0 0 0 0 0

> <atom.prop.CLASS>
GEND BENC BENC BENC MAMN BENC BENC NCLA NCLA NCLA NCLA NCLA NCLA NCLA

$$$$
