46_1
     RDKit          3D

 14 14  0  0  0  0  0  0  0  0999 V2000
   -7.8848  -11.2575    2.3794 C   0  0  0  0  0  0  0  0  0  0  0  0
   -7.1581  -12.3111    1.5261 C   0  0  0  0  0  0  0  0  0  0  0  0
   -7.8285  -13.6323    1.8974 C   0  0  0  0  0  0  0  0  0  0  0  0
   -9.1575  -13.2639    2.4028 N   0  0  0  0  0  0  0  0  0  0  0  0
   -8.8859  -12.0626    3.2029 C   0  0  0  0  0  0  0  0  0  0  0  0
   -8.4232  -10.5685    1.7279 H   0  0  0  0  0  0  0  0  0  0  0  0
   -7.1958  -10.7137    3.0266 H   0  0  0  0  0  0  0  0  0  0  0  0
   -6.0908  -12.3442    1.7491 H   0  0  0  0  0  0  0  0  0  0  0  0
   -7.3224  -12.1028    0.4685 H   0  0  0  0  0  0  0  0  0  0  0  0
   -7.2505  -14.1075    2.6939 H   0  0  0  0  0  0  0  0  0  0  0  0
   -7.8934  -14.3060    1.0399 H   0  0  0  0  0  0  0  0  0  0  0  0
   -9.6072  -14.0042    2.9273 H   0  0  0  0  0  0  0  0  0  0  0  0
   -9.7965  -11.4927    3.3996 H   0  0  0  0  0  0  0  0  0  0  0  0
   -8.4182  -12.3472    4.1486 H   0  0  0  0  0  0  0  0  0  0  0  0
  1  2  1  0
  1  5  1  0
  1  6  1  0
  1  7  1  0
  2  3  1  0
  2  8  1  0
  2  9  1  0
  3  4  1  0
  3 10  1  0
  3 11  1  0
  4  5  1  0
  4 12  1  0
  5 13  1  0
  5 14  1  0
M  END
> <intraLJ>
-0.383    

> <intraEL>
0.415     

> <intraDihe>
8.071     

> <interLJ>
0.000     

> <interEJ>
0.000     

> <gridLJ>
-2.319    

> <gridEL>
0.000     

> <totalE>
5.784     

> <LGFE>
-2.319  

> <LE>
-0.464  

> <SMILES>
C1CCNC1

> <atom.dprop.GFE>
-0.43 -0.41 -0.37 -0.74 -0.37 0 0 0 0 0 0 0 0 0

> <atom.prop.CLASS>
PRPC PRPC PRPC GEND PRPC NCLA NCLA NCLA NCLA NCLA NCLA NCLA NCLA NCLA

$$$$
