19_2
     RDKit          3D

 11 11  0  0  0  0  0  0  0  0999 V2000
  -39.5331   -4.6735   23.4784 N   0  0  0  0  0  0  0  0  0  0  0  0
  -39.9053   -3.8208   24.5383 C   0  0  0  0  0  0  0  0  0  0  0  0
  -41.0721   -3.7493   25.2178 C   0  0  0  0  0  0  0  0  0  0  0  0
  -40.9146   -2.7389   26.1627 C   0  0  0  0  0  0  0  0  0  0  0  0
  -39.7253   -2.1970   26.1030 N   0  0  0  0  0  0  0  0  0  0  0  0
  -39.0946   -2.8802   25.0916 N   0  0  0  0  0  0  0  0  0  0  0  0
  -38.8296   -4.2935   22.8247 H   0  0  0  0  0  0  0  0  0  0  0  0
  -40.3355   -5.1058   22.9930 H   0  0  0  0  0  0  0  0  0  0  0  0
  -41.9303   -4.3470   25.0588 H   0  0  0  0  0  0  0  0  0  0  0  0
  -41.6535   -2.4288   26.8575 H   0  0  0  0  0  0  0  0  0  0  0  0
  -38.1183   -2.7039   24.7991 H   0  0  0  0  0  0  0  0  0  0  0  0
  1  2  1  0
  1  7  1  0
  1  8  1  0
  2  3  2  0
  2  6  1  0
  3  4  1  0
  3  9  1  0
  4  5  2  0
  4 10  1  0
  5  6  1  0
  6 11  1  0
M  END
> <intraLJ>
-0.470    

> <intraEL>
-4.943    

> <intraDihe>
1.563     

> <interLJ>
0.000     

> <interEJ>
0.000     

> <gridLJ>
-2.498    

> <gridEL>
0.000     

> <totalE>
-6.348    

> <LGFE>
-2.498  

> <LE>
-0.416  

> <SMILES>
Nc1ccn[nH]1

> <atom.dprop.GFE>
-0.72 -0.22 -0.16 -0.13 -0.7 -0.58 0 0 0 0 0

> <atom.prop.CLASS>
GEND GEHC GEHC GEHC GENA GEND NCLA NCLA NCLA NCLA NCLA

$$$$
