35_2
     RDKit          3D

 10 10  0  0  0  0  0  0  0  0999 V2000
   18.0965   -4.3705   -6.1668 N   0  0  0  0  0  0  0  0  0  0  0  0
   18.1527   -4.5378   -7.5381 C   0  0  0  0  0  0  0  0  0  0  0  0
   19.2957   -4.6447   -8.2023 N   0  0  0  0  0  0  0  0  0  0  0  0
   18.9721   -4.7936   -9.4893 C   0  0  0  0  0  0  0  0  0  0  0  0
   17.6873   -4.7751   -9.6144 N   0  0  0  0  0  0  0  0  0  0  0  0
   17.1477   -4.6052   -8.3490 N   0  0  0  0  0  0  0  0  0  0  0  0
   17.1413   -4.5293   -5.8114 H   0  0  0  0  0  0  0  0  0  0  0  0
   18.8256   -4.8557   -5.6289 H   0  0  0  0  0  0  0  0  0  0  0  0
   20.2358   -4.6004   -7.7902 H   0  0  0  0  0  0  0  0  0  0  0  0
   19.7049   -4.9015  -10.2473 H   0  0  0  0  0  0  0  0  0  0  0  0
  1  2  1  0
  1  7  1  0
  1  8  1  0
  2  3  1  0
  2  6  2  0
  3  4  1  0
  3  9  1  0
  4  5  2  0
  4 10  1  0
  5  6  1  0
M  END
> <intraLJ>
-0.237    

> <intraEL>
-7.007    

> <intraDihe>
2.733     

> <interLJ>
0.000     

> <interEJ>
0.000     

> <gridLJ>
-2.954    

> <gridEL>
0.000     

> <totalE>
-7.466    

> <LGFE>
-2.954  

> <LE>
-0.492  

> <SMILES>
Nc1nnc[nH]1

> <atom.dprop.GFE>
-0.53 -0.21 -0.39 -0.13 -0.62 -1.1 0 0 0 0

> <atom.prop.CLASS>
GEND GEHC GEND GEHC GENA GENA NCLA NCLA NCLA NCLA

$$$$
