17_2
     RDKit          3D

 16 16  0  0  0  0  0  0  0  0999 V2000
    1.3650    6.3461  -12.4131 N   0  0  0  0  0  0  0  0  0  0  0  0
    0.0674    6.6176  -12.6459 C   0  0  0  0  0  0  0  0  0  0  0  0
   -0.1986    7.7386  -13.0187 O   0  0  0  0  0  0  0  0  0  0  0  0
   -1.0828    5.5980  -12.4686 C   0  0  0  0  0  0  0  0  0  0  0  0
   -1.4455    4.8996  -13.6925 N   0  0  0  0  0  0  0  0  0  0  0  0
   -2.1967    5.8999  -11.5180 C   0  0  0  0  0  0  0  0  0  0  0  0
   -1.1832    4.8143  -11.1990 C   0  0  0  0  0  0  0  0  0  0  0  0
    2.0312    7.0899  -12.5617 H   0  0  0  0  0  0  0  0  0  0  0  0
    1.6818    5.4428  -12.1013 H   0  0  0  0  0  0  0  0  0  0  0  0
   -0.7720    5.3161  -14.4242 H   0  0  0  0  0  0  0  0  0  0  0  0
   -2.4565    5.1337  -13.9209 H   0  0  0  0  0  0  0  0  0  0  0  0
   -1.2685    3.8625  -13.5488 H   0  0  0  0  0  0  0  0  0  0  0  0
   -3.1929    5.5621  -11.7761 H   0  0  0  0  0  0  0  0  0  0  0  0
   -2.1210    6.8144  -10.9420 H   0  0  0  0  0  0  0  0  0  0  0  0
   -0.4654    5.0397  -10.4190 H   0  0  0  0  0  0  0  0  0  0  0  0
   -1.5426    3.7946  -11.2561 H   0  0  0  0  0  0  0  0  0  0  0  0
  1  2  1  0
  1  8  1  0
  1  9  1  0
  2  3  2  0
  2  4  1  0
  4  5  1  0
  4  6  1  0
  4  7  1  0
  5 10  1  0
  5 11  1  0
  5 12  1  0
  6  7  1  0
  6 13  1  0
  6 14  1  0
  7 15  1  0
  7 16  1  0
M  CHG  1   5   1
M  END
> <intraLJ>
-0.439    

> <intraEL>
0.094     

> <intraDihe>
6.333     

> <interLJ>
0.000     

> <interEJ>
0.000     

> <gridLJ>
-2.655    

> <gridEL>
0.000     

> <totalE>
3.333     

> <LGFE>
-2.655  

> <LE>
-0.379  

> <SMILES>
NC(=O)C1([NH3+])CC1

> <atom.dprop.GFE>
-0.75 0 0.35 0.037 -2.1 -0.16 0.025 0 0 0 0 0 0 0 0 0

> <atom.prop.CLASS>
GEND NCLA GENA PRPC MAMN PRPC PRPC NCLA NCLA NCLA NCLA NCLA NCLA NCLA NCLA NCLA

$$$$
