11_2
     RDKit          3D

 10 10  0  0  0  0  0  0  0  0999 V2000
    2.6547   -0.9685  -35.0577 O   0  0  0  0  0  0  0  0  0  0  0  0
    2.7426   -0.1535  -36.0351 C   0  0  0  0  0  0  0  0  0  0  0  0
    1.5094    0.4755  -36.5840 C   0  0  0  0  0  0  0  0  0  0  0  0
    2.1534    1.5966  -37.3930 C   0  0  0  0  0  0  0  0  0  0  0  0
    3.4882    1.1050  -37.6380 O   0  0  0  0  0  0  0  0  0  0  0  0
    3.8200    0.1880  -36.6464 N   0  0  0  0  0  0  0  0  0  0  0  0
    0.8999    0.8621  -35.7822 H   0  0  0  0  0  0  0  0  0  0  0  0
    1.0310   -0.2420  -37.2319 H   0  0  0  0  0  0  0  0  0  0  0  0
    2.2157    2.4998  -36.7863 H   0  0  0  0  0  0  0  0  0  0  0  0
    1.6232    1.7770  -38.3258 H   0  0  0  0  0  0  0  0  0  0  0  0
  1  2  1  0
  2  3  1  0
  2  6  2  0
  3  4  1  0
  3  7  1  0
  3  8  1  0
  4  5  1  0
  4  9  1  0
  4 10  1  0
  5  6  1  0
M  CHG  1   1  -1
M  END
> <intraLJ>
-0.206    

> <intraEL>
-2.183    

> <intraDihe>
20.149    

> <interLJ>
0.000     

> <interEJ>
0.000     

> <gridLJ>
-2.622    

> <gridEL>
0.000     

> <totalE>
15.138    

> <LGFE>
-2.622  

> <LE>
-0.437  

> <SMILES>
[O-]C1=NOCC1

> <atom.dprop.GFE>
0 -0.38 -0.29 -0.32 -0.82 -0.82 0 0 0 0

> <atom.prop.CLASS>
NCLA ACEC PRPC PRPC GENA GENA NCLA NCLA NCLA NCLA

$$$$
