11_2
     RDKit          3D

 10 10  0  0  0  0  0  0  0  0999 V2000
   -4.2398   13.3287    6.6249 O   0  0  0  0  0  0  0  0  0  0  0  0
   -4.1124   12.0896    6.3501 C   0  0  0  0  0  0  0  0  0  0  0  0
   -3.5665   11.1589    7.3765 C   0  0  0  0  0  0  0  0  0  0  0  0
   -3.9833    9.8352    6.7439 C   0  0  0  0  0  0  0  0  0  0  0  0
   -4.1274   10.1657    5.3463 O   0  0  0  0  0  0  0  0  0  0  0  0
   -4.3921   11.5261    5.2297 N   0  0  0  0  0  0  0  0  0  0  0  0
   -4.0570   11.3199    8.3238 H   0  0  0  0  0  0  0  0  0  0  0  0
   -2.4928   11.2629    7.3814 H   0  0  0  0  0  0  0  0  0  0  0  0
   -4.9528    9.5287    7.1360 H   0  0  0  0  0  0  0  0  0  0  0  0
   -3.2305    9.0634    6.8901 H   0  0  0  0  0  0  0  0  0  0  0  0
  1  2  1  0
  2  3  1  0
  2  6  2  0
  3  4  1  0
  3  7  1  0
  3  8  1  0
  4  5  1  0
  4  9  1  0
  4 10  1  0
  5  6  1  0
M  CHG  1   1  -1
M  END
> <intraLJ>
-0.206    

> <intraEL>
-2.183    

> <intraDihe>
20.149    

> <interLJ>
0.000     

> <interEJ>
0.000     

> <gridLJ>
-3.251    

> <gridEL>
0.000     

> <totalE>
14.508    

> <LGFE>
-3.251  

> <LE>
-0.542  

> <SMILES>
[O-]C1=NOCC1

> <atom.dprop.GFE>
0 -1.3 0.0083 0.15 -1.2 -0.94 0 0 0 0

> <atom.prop.CLASS>
NCLA ACEC PRPC PRPC GENA GENA NCLA NCLA NCLA NCLA

$$$$
