19_2
     RDKit          3D

 11 11  0  0  0  0  0  0  0  0999 V2000
  -21.1165    5.4546   -6.5668 N   0  0  0  0  0  0  0  0  0  0  0  0
  -21.1199    5.5003   -7.9763 C   0  0  0  0  0  0  0  0  0  0  0  0
  -20.2261    6.0599   -8.8226 C   0  0  0  0  0  0  0  0  0  0  0  0
  -20.7013    5.8210  -10.1094 C   0  0  0  0  0  0  0  0  0  0  0  0
  -21.8233    5.1479  -10.0974 N   0  0  0  0  0  0  0  0  0  0  0  0
  -22.0783    4.9429   -8.7631 N   0  0  0  0  0  0  0  0  0  0  0  0
  -22.0457    5.4042   -6.1187 H   0  0  0  0  0  0  0  0  0  0  0  0
  -20.5018    6.1604   -6.1307 H   0  0  0  0  0  0  0  0  0  0  0  0
  -19.3419    6.5744   -8.5536 H   0  0  0  0  0  0  0  0  0  0  0  0
  -20.2290    6.1354  -11.0055 H   0  0  0  0  0  0  0  0  0  0  0  0
  -22.8953    4.4179   -8.4071 H   0  0  0  0  0  0  0  0  0  0  0  0
  1  2  1  0
  1  7  1  0
  1  8  1  0
  2  3  2  0
  2  6  1  0
  3  4  1  0
  3  9  1  0
  4  5  2  0
  4 10  1  0
  5  6  1  0
  6 11  1  0
M  END
> <intraLJ>
-0.470    

> <intraEL>
-4.943    

> <intraDihe>
1.563     

> <interLJ>
0.000     

> <interEJ>
0.000     

> <gridLJ>
-3.288    

> <gridEL>
0.000     

> <totalE>
-7.138    

> <LGFE>
-3.288  

> <LE>
-0.548  

> <SMILES>
Nc1ccn[nH]1

> <atom.dprop.GFE>
-0.81 -0.14 -0.29 -0.28 -1.1 -0.72 0 0 0 0 0

> <atom.prop.CLASS>
GEND GEHC GEHC GEHC GENA GEND NCLA NCLA NCLA NCLA NCLA

$$$$
