74_2
     RDKit          3D

 12 12  0  0  0  0  0  0  0  0999 V2000
   19.4467    2.2530  -48.8592 O   0  0  0  0  0  0  0  0  0  0  0  0
   19.6131    3.4202  -49.2149 C   0  0  0  0  0  0  0  0  0  0  0  0
   18.5845    4.3789  -49.4874 C   0  0  0  0  0  0  0  0  0  0  0  0
   18.9018    5.6471  -49.8752 C   0  0  0  0  0  0  0  0  0  0  0  0
   20.2721    6.0194  -50.0084 C   0  0  0  0  0  0  0  0  0  0  0  0
   21.2581    5.1093  -49.7501 C   0  0  0  0  0  0  0  0  0  0  0  0
   20.9119    3.8265  -49.3581 N   0  0  0  0  0  0  0  0  0  0  0  0
   17.5796    4.0655  -49.3762 H   0  0  0  0  0  0  0  0  0  0  0  0
   18.1416    6.3591  -50.0774 H   0  0  0  0  0  0  0  0  0  0  0  0
   20.5146    7.0067  -50.3100 H   0  0  0  0  0  0  0  0  0  0  0  0
   22.2994    5.3065  -49.8258 H   0  0  0  0  0  0  0  0  0  0  0  0
   21.6232    3.1105  -49.1532 H   0  0  0  0  0  0  0  0  0  0  0  0
  1  2  2  0
  2  3  1  0
  2  7  1  0
  3  4  2  0
  3  8  1  0
  4  5  1  0
  4  9  1  0
  5  6  2  0
  5 10  1  0
  6  7  1  0
  6 11  1  0
  7 12  1  0
M  END
> <intraLJ>
7.690     

> <intraEL>
-2.793    

> <intraDihe>
0.000     

> <interLJ>
0.000     

> <interEJ>
0.000     

> <gridLJ>
-2.072    

> <gridEL>
0.000     

> <totalE>
2.825     

> <LGFE>
-2.072  

> <LE>
-0.296  

> <SMILES>
O=c1cccc[nH]1

> <atom.dprop.GFE>
-0.61 -0.22 -0.21 -0.18 -0.12 -0.12 -0.62 0 0 0 0 0

> <atom.prop.CLASS>
GENA GEHC BENC BENC BENC BENC GEND NCLA NCLA NCLA NCLA NCLA

$$$$
