27_1
     RDKit          3D

 11 11  0  0  0  0  0  0  0  0999 V2000
  -31.0459   -9.2296   23.4731 N   0  0  0  0  0  0  0  0  0  0  0  0
  -30.4798   -9.7165   24.6259 C   0  0  0  0  0  0  0  0  0  0  0  0
  -30.9210  -10.7406   25.2848 N   0  0  0  0  0  0  0  0  0  0  0  0
  -30.0587  -10.8526   26.3415 C   0  0  0  0  0  0  0  0  0  0  0  0
  -29.1087   -9.8889   26.3002 C   0  0  0  0  0  0  0  0  0  0  0  0
  -29.3866   -9.1590   25.1963 N   0  0  0  0  0  0  0  0  0  0  0  0
  -30.3819   -8.8584   22.7845 H   0  0  0  0  0  0  0  0  0  0  0  0
  -31.7139   -9.9116   23.0866 H   0  0  0  0  0  0  0  0  0  0  0  0
  -30.1362  -11.6015   27.0895 H   0  0  0  0  0  0  0  0  0  0  0  0
  -28.3000   -9.6823   26.9523 H   0  0  0  0  0  0  0  0  0  0  0  0
  -28.8977   -8.3249   24.8435 H   0  0  0  0  0  0  0  0  0  0  0  0
  1  2  1  0
  1  7  1  0
  1  8  1  0
  2  3  2  0
  2  6  1  0
  3  4  1  0
  4  5  2  0
  4  9  1  0
  5  6  1  0
  5 10  1  0
  6 11  1  0
M  END
> <intraLJ>
-0.193    

> <intraEL>
-10.326   

> <intraDihe>
2.842     

> <interLJ>
0.000     

> <interEJ>
0.000     

> <gridLJ>
-2.831    

> <gridEL>
0.000     

> <totalE>
-10.507   

> <LGFE>
-2.831  

> <LE>
-0.472  

> <SMILES>
Nc1ncc[nH]1

> <atom.dprop.GFE>
-0.53 -0.24 -0.86 -0.26 -0.26 -0.69 0 0 0 0 0

> <atom.prop.CLASS>
GEND GEHC GENA GEHC GEHC GEND NCLA NCLA NCLA NCLA NCLA

$$$$
