19_1
     RDKit          3D

 11 11  0  0  0  0  0  0  0  0999 V2000
   18.9614   -2.6040  -12.9029 N   0  0  0  0  0  0  0  0  0  0  0  0
   20.1092   -2.8797  -12.1968 C   0  0  0  0  0  0  0  0  0  0  0  0
   20.5891   -2.2445  -11.0594 C   0  0  0  0  0  0  0  0  0  0  0  0
   21.7311   -2.8878  -10.7335 C   0  0  0  0  0  0  0  0  0  0  0  0
   21.8781   -3.8573  -11.6700 N   0  0  0  0  0  0  0  0  0  0  0  0
   20.8561   -3.8586  -12.5873 N   0  0  0  0  0  0  0  0  0  0  0  0
   18.7819   -3.4229  -13.4977 H   0  0  0  0  0  0  0  0  0  0  0  0
   18.1862   -2.4213  -12.2571 H   0  0  0  0  0  0  0  0  0  0  0  0
   20.1488   -1.4218  -10.5600 H   0  0  0  0  0  0  0  0  0  0  0  0
   22.4243   -2.7401   -9.9470 H   0  0  0  0  0  0  0  0  0  0  0  0
   22.6672   -4.5295  -11.7036 H   0  0  0  0  0  0  0  0  0  0  0  0
  1  2  1  0
  1  7  1  0
  1  8  1  0
  2  3  1  0
  2  6  2  0
  3  4  2  0
  3  9  1  0
  4  5  1  0
  4 10  1  0
  5  6  1  0
  5 11  1  0
M  END
> <intraLJ>
-0.199    

> <intraEL>
-8.716    

> <intraDihe>
2.079     

> <interLJ>
0.000     

> <interEJ>
0.000     

> <gridLJ>
-2.393    

> <gridEL>
0.000     

> <totalE>
-9.229    

> <LGFE>
-2.394  

> <LE>
-0.399  

> <SMILES>
Nc1cc[nH]n1

> <atom.dprop.GFE>
-0.84 -0.21 -0.17 -0.12 -0.32 -0.73 0 0 0 0 0

> <atom.prop.CLASS>
GEND GEHC GEHC GEHC GEND GENA NCLA NCLA NCLA NCLA NCLA

$$$$
