79
     RDKit          3D

 13 12  0  0  0  0  0  0  0  0999 V2000
   -5.0748   14.5791   -0.8168 C   0  0  0  0  0  0  0  0  0  0  0  0
   -4.9854   15.7652    0.1400 C   0  0  0  0  0  0  0  0  0  0  0  0
   -5.2164   15.1964    1.4463 O   0  0  0  0  0  0  0  0  0  0  0  0
   -6.4057   15.0887    2.0625 C   0  0  0  0  0  0  0  0  0  0  0  0
   -7.4333   15.4743    1.5491 O   0  0  0  0  0  0  0  0  0  0  0  0
   -6.4275   14.5328    3.2821 N   0  0  0  0  0  0  0  0  0  0  0  0
   -4.9119   14.9171   -1.8401 H   0  0  0  0  0  0  0  0  0  0  0  0
   -6.0619   14.1204   -0.7400 H   0  0  0  0  0  0  0  0  0  0  0  0
   -4.3176   13.8393   -0.5553 H   0  0  0  0  0  0  0  0  0  0  0  0
   -5.7565   16.4989   -0.1007 H   0  0  0  0  0  0  0  0  0  0  0  0
   -3.9910   16.2130    0.0878 H   0  0  0  0  0  0  0  0  0  0  0  0
   -7.3381   14.4475    3.7449 H   0  0  0  0  0  0  0  0  0  0  0  0
   -5.5680   14.1989    3.7216 H   0  0  0  0  0  0  0  0  0  0  0  0
  1  2  1  0
  1  7  1  0
  1  8  1  0
  1  9  1  0
  2  3  1  0
  2 10  1  0
  2 11  1  0
  3  4  1  0
  4  5  2  0
  4  6  1  0
  6 12  1  0
  6 13  1  0
M  END
> <intraLJ>
-0.001    

> <intraEL>
-7.832    

> <intraDihe>
1.197     

> <interLJ>
0.000     

> <interEJ>
0.000     

> <gridLJ>
-2.353    

> <gridEL>
0.000     

> <totalE>
-8.990    

> <LGFE>
-2.353  

> <LE>
-0.392  

> <SMILES>
CCOC(N)=O

> <atom.dprop.GFE>
-0.49 -0.53 -0.29 0 -0.44 -0.6 0 0 0 0 0 0 0

> <atom.prop.CLASS>
PRPC PRPC GENA NCLA GENA GEND NCLA NCLA NCLA NCLA NCLA NCLA NCLA

$$$$
