74_2
     RDKit          3D

 12 12  0  0  0  0  0  0  0  0999 V2000
   23.2128    6.1489   -6.7886 O   0  0  0  0  0  0  0  0  0  0  0  0
   23.5277    6.9762   -7.6447 C   0  0  0  0  0  0  0  0  0  0  0  0
   24.6275    6.8765   -8.5568 C   0  0  0  0  0  0  0  0  0  0  0  0
   24.8704    7.8662   -9.4629 C   0  0  0  0  0  0  0  0  0  0  0  0
   24.0184    9.0092   -9.5009 C   0  0  0  0  0  0  0  0  0  0  0  0
   22.9676    9.1103   -8.6333 C   0  0  0  0  0  0  0  0  0  0  0  0
   22.7405    8.0929   -7.7209 N   0  0  0  0  0  0  0  0  0  0  0  0
   25.2364    6.0127   -8.4988 H   0  0  0  0  0  0  0  0  0  0  0  0
   25.6844    7.7945  -10.1398 H   0  0  0  0  0  0  0  0  0  0  0  0
   24.2107    9.7764  -10.2073 H   0  0  0  0  0  0  0  0  0  0  0  0
   22.2884    9.9266   -8.5970 H   0  0  0  0  0  0  0  0  0  0  0  0
   21.9600    8.1290   -7.0501 H   0  0  0  0  0  0  0  0  0  0  0  0
  1  2  2  0
  2  3  1  0
  2  7  1  0
  3  4  2  0
  3  8  1  0
  4  5  1  0
  4  9  1  0
  5  6  2  0
  5 10  1  0
  6  7  1  0
  6 11  1  0
  7 12  1  0
M  END
> <intraLJ>
7.690     

> <intraEL>
-2.793    

> <intraDihe>
0.000     

> <interLJ>
0.000     

> <interEJ>
0.000     

> <gridLJ>
-3.615    

> <gridEL>
0.000     

> <totalE>
1.282     

> <LGFE>
-3.615  

> <LE>
-0.516  

> <SMILES>
O=c1cccc[nH]1

> <atom.dprop.GFE>
-1.2 -0.4 -0.18 -0.2 -0.19 -0.13 -1.3 0 0 0 0 0

> <atom.prop.CLASS>
GENA GEHC BENC BENC BENC BENC GEND NCLA NCLA NCLA NCLA NCLA

$$$$
