71_2
     RDKit          3D

 19 19  0  0  0  0  0  0  0  0999 V2000
  -40.7649    5.2963   18.7551 C   0  0  0  0  0  0  0  0  0  0  0  0
  -42.0362    5.6203   19.5371 C   0  0  0  0  0  0  0  0  0  0  0  0
  -42.2445    7.0755   19.7656 N   0  0  0  0  0  0  0  0  0  0  0  0
  -41.0280    7.8510   20.1576 C   0  0  0  0  0  0  0  0  0  0  0  0
  -40.0618    7.1050   21.0879 C   0  0  0  0  0  0  0  0  0  0  0  0
  -39.1472    6.3710   20.2809 O   0  0  0  0  0  0  0  0  0  0  0  0
  -39.5785    5.1386   19.7189 C   0  0  0  0  0  0  0  0  0  0  0  0
  -40.5507    6.0528   17.9994 H   0  0  0  0  0  0  0  0  0  0  0  0
  -40.9087    4.3403   18.2493 H   0  0  0  0  0  0  0  0  0  0  0  0
  -41.9553    5.1071   20.5003 H   0  0  0  0  0  0  0  0  0  0  0  0
  -42.9028    5.1998   19.0174 H   0  0  0  0  0  0  0  0  0  0  0  0
  -42.9550    7.1751   20.4800 H   0  0  0  0  0  0  0  0  0  0  0  0
  -42.6097    7.4983   18.9196 H   0  0  0  0  0  0  0  0  0  0  0  0
  -41.3144    8.8050   20.6086 H   0  0  0  0  0  0  0  0  0  0  0  0
  -40.4430    8.0780   19.2625 H   0  0  0  0  0  0  0  0  0  0  0  0
  -40.5875    6.4677   21.8003 H   0  0  0  0  0  0  0  0  0  0  0  0
  -39.4886    7.8475   21.6463 H   0  0  0  0  0  0  0  0  0  0  0  0
  -38.7386    4.7182   19.1611 H   0  0  0  0  0  0  0  0  0  0  0  0
  -39.8260    4.4316   20.5134 H   0  0  0  0  0  0  0  0  0  0  0  0
  1  2  1  0
  1  7  1  0
  1  8  1  0
  1  9  1  0
  2  3  1  0
  2 10  1  0
  2 11  1  0
  3  4  1  0
  3 12  1  0
  3 13  1  0
  4  5  1  0
  4 14  1  0
  4 15  1  0
  5  6  1  0
  5 16  1  0
  5 17  1  0
  6  7  1  0
  7 18  1  0
  7 19  1  0
M  CHG  1   3   1
M  END
> <intraLJ>
1.159     

> <intraEL>
4.103     

> <intraDihe>
11.900    

> <interLJ>
0.000     

> <interEJ>
0.000     

> <gridLJ>
-3.360    

> <gridEL>
0.000     

> <totalE>
13.802    

> <LGFE>
-3.360  

> <LE>
-0.480  

> <SMILES>
C1C[NH2+]CCOC1

> <atom.dprop.GFE>
-0.49 -0.43 -0.03 -0.43 -0.6 -0.8 -0.57 0 0 0 0 0 0 0 0 0 0 0 0

> <atom.prop.CLASS>
PRPC PRPC MAMN PRPC PRPC GENA PRPC NCLA NCLA NCLA NCLA NCLA NCLA NCLA NCLA NCLA NCLA NCLA NCLA

$$$$
