14_1
     RDKit          3D

 18 18  0  0  1  0  0  0  0  0999 V2000
  -27.0175  -16.9201    7.4783 C   0  0  0  0  0  0  0  0  0  0  0  0
  -25.8797  -17.2286    6.5996 N   0  0  0  0  0  0  0  0  0  0  0  0
  -24.5974  -17.1436    7.3188 C   0  0  0  0  0  0  0  0  0  0  0  0
  -23.6938  -18.1793    6.6178 C   0  0  0  0  0  0  0  0  0  0  0  0
  -24.5610  -18.7727    5.5112 C   0  0  0  0  0  0  0  0  0  0  0  0
  -24.4440  -17.9585    4.3667 O   0  0  0  0  0  0  0  0  0  0  0  0
  -25.9800  -18.5871    6.0490 C   0  0  0  0  0  0  0  0  0  0  0  0
  -26.8835  -15.9103    7.8459 H   0  0  0  0  0  0  0  0  0  0  0  0
  -27.0349  -17.6325    8.2930 H   0  0  0  0  0  0  0  0  0  0  0  0
  -27.9189  -16.9863    6.8844 H   0  0  0  0  0  0  0  0  0  0  0  0
  -24.1818  -16.1504    7.1981 H   0  0  0  0  0  0  0  0  0  0  0  0
  -24.7157  -17.4330    8.3557 H   0  0  0  0  0  0  0  0  0  0  0  0
  -23.4164  -18.9604    7.3251 H   0  0  0  0  0  0  0  0  0  0  0  0
  -22.7996  -17.7119    6.2052 H   0  0  0  0  0  0  0  0  0  0  0  0
  -24.2884  -19.8050    5.2843 H   0  0  0  0  0  0  0  0  0  0  0  0
  -24.8936  -17.1451    4.6329 H   0  0  0  0  0  0  0  0  0  0  0  0
  -26.1548  -19.3082    6.8366 H   0  0  0  0  0  0  0  0  0  0  0  0
  -26.6993  -18.6323    5.2411 H   0  0  0  0  0  0  0  0  0  0  0  0
  1  2  1  0
  1  8  1  0
  1  9  1  0
  1 10  1  0
  2  3  1  0
  2  7  1  0
  3  4  1  0
  3 11  1  0
  3 12  1  0
  4  5  1  0
  4 13  1  0
  4 14  1  0
  5  6  1  0
  5  7  1  0
  5 15  1  0
  6 16  1  0
  7 17  1  0
  7 18  1  0
M  END
> <intraLJ>
3.504     

> <intraEL>
0.090     

> <intraDihe>
11.625    

> <interLJ>
0.000     

> <interEJ>
0.000     

> <gridLJ>
-2.672    

> <gridEL>
0.000     

> <totalE>
12.546    

> <LGFE>
-2.672  

> <LE>
-0.382  

> <SMILES>
CN1CCC(O)C1

> <atom.dprop.GFE>
-0.32 -0.48 -0.43 -0.34 -0.4 -0.3 -0.41 0 0 0 0 0 0 0 0 0 0 0

> <atom.prop.CLASS>
PRPC GEND PRPC PRPC PRPC MEOO PRPC NCLA NCLA NCLA NCLA NCLA NCLA NCLA NCLA NCLA NCLA NCLA

$$$$
