34
     RDKit          3D

 19 19  0  0  0  0  0  0  0  0999 V2000
   14.2249    7.1150  -43.9101 O   0  0  0  0  0  0  0  0  0  0  0  0
   13.9198    5.8319  -43.4170 C   0  0  0  0  0  0  0  0  0  0  0  0
   14.3077    4.7898  -44.4718 C   0  0  0  0  0  0  0  0  0  0  0  0
   13.8892    3.3759  -44.0344 C   0  0  0  0  0  0  0  0  0  0  0  0
   12.3860    3.3196  -43.7252 C   0  0  0  0  0  0  0  0  0  0  0  0
   11.9963    4.3655  -42.6697 C   0  0  0  0  0  0  0  0  0  0  0  0
   12.4193    5.7737  -43.1151 C   0  0  0  0  0  0  0  0  0  0  0  0
   15.1642    7.1568  -44.1013 H   0  0  0  0  0  0  0  0  0  0  0  0
   14.4774    5.6452  -42.4963 H   0  0  0  0  0  0  0  0  0  0  0  0
   15.3868    4.8130  -44.6269 H   0  0  0  0  0  0  0  0  0  0  0  0
   13.8135    5.0354  -45.4126 H   0  0  0  0  0  0  0  0  0  0  0  0
   14.4513    3.0918  -43.1420 H   0  0  0  0  0  0  0  0  0  0  0  0
   14.1224    2.6667  -44.8294 H   0  0  0  0  0  0  0  0  0  0  0  0
   12.1271    2.3232  -43.3625 H   0  0  0  0  0  0  0  0  0  0  0  0
   11.8231    3.5075  -44.6415 H   0  0  0  0  0  0  0  0  0  0  0  0
   12.4824    4.1233  -41.7222 H   0  0  0  0  0  0  0  0  0  0  0  0
   10.9157    4.3432  -42.5185 H   0  0  0  0  0  0  0  0  0  0  0  0
   11.8653    6.0524  -44.0131 H   0  0  0  0  0  0  0  0  0  0  0  0
   12.1858    6.4913  -42.3281 H   0  0  0  0  0  0  0  0  0  0  0  0
  1  2  1  0
  1  8  1  0
  2  3  1  0
  2  7  1  0
  2  9  1  0
  3  4  1  0
  3 10  1  0
  3 11  1  0
  4  5  1  0
  4 12  1  0
  4 13  1  0
  5  6  1  0
  5 14  1  0
  5 15  1  0
  6  7  1  0
  6 16  1  0
  6 17  1  0
  7 18  1  0
  7 19  1  0
M  END
> <intraLJ>
-0.471    

> <intraEL>
-1.198    

> <intraDihe>
8.631     

> <interLJ>
0.000     

> <interEJ>
0.000     

> <gridLJ>
-2.805    

> <gridEL>
0.000     

> <totalE>
4.157     

> <LGFE>
-2.805  

> <LE>
-0.401  

> <SMILES>
OC1CCCCC1

> <atom.dprop.GFE>
-0.76 -0.37 -0.33 -0.32 -0.33 -0.34 -0.37 0 0 0 0 0 0 0 0 0 0 0 0

> <atom.prop.CLASS>
MEOO PRPC PRPC PRPC PRPC PRPC PRPC NCLA NCLA NCLA NCLA NCLA NCLA NCLA NCLA NCLA NCLA NCLA NCLA

$$$$
