2_1
     RDKit          3D

 15 15  0  0  0  0  0  0  0  0999 V2000
  -27.0158   -4.6132   30.4950 C   0  0  0  0  0  0  0  0  0  0  0  0
  -25.4851   -4.6825   30.6486 C   0  0  0  0  0  0  0  0  0  0  0  0
  -25.0859   -4.3442   31.9779 O   0  0  0  0  0  0  0  0  0  0  0  0
  -25.5273   -3.0355   32.3432 C   0  0  0  0  0  0  0  0  0  0  0  0
  -27.0597   -2.9180   32.2389 C   0  0  0  0  0  0  0  0  0  0  0  0
  -27.5427   -3.2771   30.8796 N   0  0  0  0  0  0  0  0  0  0  0  0
  -27.4542   -5.3807   31.1363 H   0  0  0  0  0  0  0  0  0  0  0  0
  -27.2815   -4.8319   29.4600 H   0  0  0  0  0  0  0  0  0  0  0  0
  -25.0273   -3.9905   29.9407 H   0  0  0  0  0  0  0  0  0  0  0  0
  -25.1461   -5.6927   30.4181 H   0  0  0  0  0  0  0  0  0  0  0  0
  -25.0712   -2.2960   31.6839 H   0  0  0  0  0  0  0  0  0  0  0  0
  -25.2210   -2.8253   33.3682 H   0  0  0  0  0  0  0  0  0  0  0  0
  -27.3569   -1.8966   32.4794 H   0  0  0  0  0  0  0  0  0  0  0  0
  -27.5017   -3.5911   32.9766 H   0  0  0  0  0  0  0  0  0  0  0  0
  -28.5553   -3.2608   30.8387 H   0  0  0  0  0  0  0  0  0  0  0  0
  1  2  1  0
  1  6  1  0
  1  7  1  0
  1  8  1  0
  2  3  1  0
  2  9  1  0
  2 10  1  0
  3  4  1  0
  4  5  1  0
  4 11  1  0
  4 12  1  0
  5  6  1  0
  5 13  1  0
  5 14  1  0
  6 15  1  0
M  END
> <intraLJ>
0.516     

> <intraEL>
2.915     

> <intraDihe>
4.772     

> <interLJ>
0.000     

> <interEJ>
0.000     

> <gridLJ>
-2.357    

> <gridEL>
0.000     

> <totalE>
5.846     

> <LGFE>
-2.357  

> <LE>
-0.393  

> <SMILES>
C1COCCN1

> <atom.dprop.GFE>
-0.32 -0.35 -0.71 -0.31 -0.29 -0.37 0 0 0 0 0 0 0 0 0

> <atom.prop.CLASS>
PRPC PRPC GENA PRPC PRPC GEND NCLA NCLA NCLA NCLA NCLA NCLA NCLA NCLA NCLA

$$$$
