81_2
     RDKit          3D

 19 19  0  0  1  0  0  0  0  0999 V2000
   -7.0615    4.0588  -14.4775 N   0  0  0  0  0  0  0  0  0  0  0  0
   -6.0681    4.3289  -13.4080 C   0  0  0  0  0  0  0  0  0  0  0  0
   -6.6256    5.3804  -12.4356 C   0  0  0  0  0  0  0  0  0  0  0  0
   -6.8667    6.7539  -13.0539 C   0  0  0  0  0  0  0  0  0  0  0  0
   -6.7203    7.6851  -11.8494 C   0  0  0  0  0  0  0  0  0  0  0  0
   -6.0152    6.8385  -10.7870 C   0  0  0  0  0  0  0  0  0  0  0  0
   -5.6491    5.6326  -11.4414 O   0  0  0  0  0  0  0  0  0  0  0  0
   -6.7967    3.2802  -15.0609 H   0  0  0  0  0  0  0  0  0  0  0  0
   -7.2239    4.8891  -15.0282 H   0  0  0  0  0  0  0  0  0  0  0  0
   -7.9346    3.8684  -13.9879 H   0  0  0  0  0  0  0  0  0  0  0  0
   -5.8981    3.4127  -12.8372 H   0  0  0  0  0  0  0  0  0  0  0  0
   -5.1129    4.6682  -13.8166 H   0  0  0  0  0  0  0  0  0  0  0  0
   -7.5418    5.0169  -11.9649 H   0  0  0  0  0  0  0  0  0  0  0  0
   -6.0932    6.9844  -13.7900 H   0  0  0  0  0  0  0  0  0  0  0  0
   -7.8598    6.8298  -13.5005 H   0  0  0  0  0  0  0  0  0  0  0  0
   -7.6990    7.9991  -11.4808 H   0  0  0  0  0  0  0  0  0  0  0  0
   -6.1211    8.5609  -12.1068 H   0  0  0  0  0  0  0  0  0  0  0  0
   -6.7072    6.6241   -9.9700 H   0  0  0  0  0  0  0  0  0  0  0  0
   -5.1350    7.3530  -10.3950 H   0  0  0  0  0  0  0  0  0  0  0  0
  1  2  1  0
  1  8  1  0
  1  9  1  0
  1 10  1  0
  2  3  1  0
  2 11  1  0
  2 12  1  0
  3  4  1  0
  3  7  1  0
  3 13  1  0
  4  5  1  0
  4 14  1  0
  4 15  1  0
  5  6  1  0
  5 16  1  0
  5 17  1  0
  6  7  1  0
  6 18  1  0
  6 19  1  0
M  CHG  1   1   1
M  END
> <intraLJ>
-0.745    

> <intraEL>
2.669     

> <intraDihe>
7.603     

> <interLJ>
0.000     

> <interEJ>
0.000     

> <gridLJ>
-2.905    

> <gridEL>
0.000     

> <totalE>
6.623     

> <LGFE>
-2.905  

> <LE>
-0.415  

> <SMILES>
[NH3+]CC1CCCO1

> <atom.dprop.GFE>
-2.4 0.13 -0.05 0.19 0.046 -0.15 -0.64 0 0 0 0 0 0 0 0 0 0 0 0

> <atom.prop.CLASS>
MAMN PRPC PRPC PRPC PRPC PRPC GENA NCLA NCLA NCLA NCLA NCLA NCLA NCLA NCLA NCLA NCLA NCLA NCLA

$$$$
