23_3
     RDKit          3D

 11 11  0  0  0  0  0  0  0  0999 V2000
   22.2660    3.9801  -30.7496 O   0  0  0  0  0  0  0  0  0  0  0  0
   22.9188    2.9761  -30.9902 C   0  0  0  0  0  0  0  0  0  0  0  0
   23.8713    2.6371  -30.0730 N   0  0  0  0  0  0  0  0  0  0  0  0
   24.6768    1.5346  -30.2162 C   0  0  0  0  0  0  0  0  0  0  0  0
   24.4909    0.7721  -31.3277 C   0  0  0  0  0  0  0  0  0  0  0  0
   23.4925    1.1402  -32.2739 C   0  0  0  0  0  0  0  0  0  0  0  0
   22.7524    2.1768  -32.1159 N   0  0  0  0  0  0  0  0  0  0  0  0
   23.9399    3.2714  -29.2653 H   0  0  0  0  0  0  0  0  0  0  0  0
   25.3893    1.3531  -29.4489 H   0  0  0  0  0  0  0  0  0  0  0  0
   25.0749   -0.0919  -31.5041 H   0  0  0  0  0  0  0  0  0  0  0  0
   23.3508    0.5424  -33.1388 H   0  0  0  0  0  0  0  0  0  0  0  0
  1  2  2  0
  2  3  1  0
  2  7  1  0
  3  4  1  0
  3  8  1  0
  4  5  2  0
  4  9  1  0
  5  6  1  0
  5 10  1  0
  6  7  2  0
  6 11  1  0
M  END
> <intraLJ>
11.692    

> <intraEL>
-4.846    

> <intraDihe>
0.000     

> <interLJ>
0.000     

> <interEJ>
0.000     

> <gridLJ>
-2.995    

> <gridEL>
0.000     

> <totalE>
3.851     

> <LGFE>
-2.995  

> <LE>
-0.428  

> <SMILES>
O=c1nccc[nH]1

> <atom.dprop.GFE>
-1.5 -0.26 -0.68 -0.086 -0.052 -0.072 -0.35 0 0 0 0

> <atom.prop.CLASS>
GENA GEHC GEND BENC BENC BENC GENA NCLA NCLA NCLA NCLA

$$$$
