53
     RDKit          3D

 16 16  0  0  0  0  0  0  0  0999 V2000
  -20.8983    7.0454   -3.8197 O   0  0  0  0  0  0  0  0  0  0  0  0
  -19.8201    6.7006   -3.3640 C   0  0  0  0  0  0  0  0  0  0  0  0
  -19.0771    7.5277   -2.3174 C   0  0  0  0  0  0  0  0  0  0  0  0
  -17.5693    7.6448   -2.6425 C   0  0  0  0  0  0  0  0  0  0  0  0
  -16.9783    6.3572   -3.2746 C   0  0  0  0  0  0  0  0  0  0  0  0
  -17.9478    5.1671   -3.2221 C   0  0  0  0  0  0  0  0  0  0  0  0
  -19.2099    5.6043   -3.7964 N   0  0  0  0  0  0  0  0  0  0  0  0
  -19.1994    7.0305   -1.3558 H   0  0  0  0  0  0  0  0  0  0  0  0
  -19.5242    8.5206   -2.2590 H   0  0  0  0  0  0  0  0  0  0  0  0
  -17.0282    7.8882   -1.7263 H   0  0  0  0  0  0  0  0  0  0  0  0
  -17.4269    8.4682   -3.3458 H   0  0  0  0  0  0  0  0  0  0  0  0
  -16.0498    6.0905   -2.7679 H   0  0  0  0  0  0  0  0  0  0  0  0
  -16.7459    6.5582   -4.3217 H   0  0  0  0  0  0  0  0  0  0  0  0
  -18.0934    4.8506   -2.1872 H   0  0  0  0  0  0  0  0  0  0  0  0
  -17.5379    4.3330   -3.7959 H   0  0  0  0  0  0  0  0  0  0  0  0
  -19.6763    5.0686   -4.5097 H   0  0  0  0  0  0  0  0  0  0  0  0
  1  2  2  0
  2  3  1  0
  2  7  1  0
  3  4  1  0
  3  8  1  0
  3  9  1  0
  4  5  1  0
  4 10  1  0
  4 11  1  0
  5  6  1  0
  5 12  1  0
  5 13  1  0
  6  7  1  0
  6 14  1  0
  6 15  1  0
  7 16  1  0
M  END
> <intraLJ>
0.344     

> <intraEL>
-2.405    

> <intraDihe>
10.947    

> <interLJ>
0.000     

> <interEJ>
0.000     

> <gridLJ>
-3.153    

> <gridEL>
0.000     

> <totalE>
5.733     

> <LGFE>
-3.153  

> <LE>
-0.450  

> <SMILES>
O=C1CCCCN1

> <atom.dprop.GFE>
-0.43 0 -0.44 -0.51 -0.59 -0.43 -0.75 0 0 0 0 0 0 0 0 0

> <atom.prop.CLASS>
GENA NCLA PRPC PRPC PRPC PRPC GEND NCLA NCLA NCLA NCLA NCLA NCLA NCLA NCLA NCLA

$$$$
