29_1
     RDKit          3D

 12 12  0  0  0  0  0  0  0  0999 V2000
   24.1363    9.0812  -43.8649 N   0  0  0  0  0  0  0  0  0  0  0  0
   24.3789    9.9681  -42.8236 C   0  0  0  0  0  0  0  0  0  0  0  0
   25.1636    9.7113  -41.7477 C   0  0  0  0  0  0  0  0  0  0  0  0
   25.2024   11.0820  -40.7131 S   0  0  0  0  0  0  0  0  0  0  0  0
   24.1517   11.8535  -41.8479 C   0  0  0  0  0  0  0  0  0  0  0  0
   23.7207   13.1375  -41.6378 N   0  0  0  0  0  0  0  0  0  0  0  0
   23.7996   11.1853  -42.9028 N   0  0  0  0  0  0  0  0  0  0  0  0
   23.7535    9.6289  -44.6470 H   0  0  0  0  0  0  0  0  0  0  0  0
   24.9997    8.5945  -44.1304 H   0  0  0  0  0  0  0  0  0  0  0  0
   25.6844    8.8180  -41.5299 H   0  0  0  0  0  0  0  0  0  0  0  0
   23.4162   13.5696  -42.5182 H   0  0  0  0  0  0  0  0  0  0  0  0
   24.3706   13.6964  -41.0730 H   0  0  0  0  0  0  0  0  0  0  0  0
  1  2  1  0
  1  8  1  0
  1  9  1  0
  2  3  2  0
  2  7  1  0
  3  4  1  0
  3 10  1  0
  4  5  1  0
  5  6  1  0
  5  7  2  0
  6 11  1  0
  6 12  1  0
M  END
> <intraLJ>
-0.273    

> <intraEL>
-13.389   

> <intraDihe>
3.347     

> <interLJ>
0.000     

> <interEJ>
0.000     

> <gridLJ>
-2.022    

> <gridEL>
0.000     

> <totalE>
-12.337   

> <LGFE>
-2.022  

> <LE>
-0.289  

> <SMILES>
Nc1csc(N)n1

> <atom.dprop.GFE>
-0.59 -0.11 -0.14 -0.15 -0.079 -0.38 -0.57 0 0 0 0 0

> <atom.prop.CLASS>
GEND GEHC GEHC PRPC GEHC GEND GENA NCLA NCLA NCLA NCLA NCLA

$$$$
