19_1
     RDKit          3D

 11 11  0  0  0  0  0  0  0  0999 V2000
   13.8951   15.8455  -29.5442 N   0  0  0  0  0  0  0  0  0  0  0  0
   15.0952   16.1520  -28.9461 C   0  0  0  0  0  0  0  0  0  0  0  0
   15.6864   15.5410  -27.8485 C   0  0  0  0  0  0  0  0  0  0  0  0
   16.8600   16.1822  -27.6590 C   0  0  0  0  0  0  0  0  0  0  0  0
   16.9157   17.1260  -28.6310 N   0  0  0  0  0  0  0  0  0  0  0  0
   15.8104   17.1045  -29.4457 N   0  0  0  0  0  0  0  0  0  0  0  0
   13.9061   16.2976  -30.4673 H   0  0  0  0  0  0  0  0  0  0  0  0
   13.7873   14.8283  -29.6162 H   0  0  0  0  0  0  0  0  0  0  0  0
   15.2901   14.7422  -27.2785 H   0  0  0  0  0  0  0  0  0  0  0  0
   17.6268   16.0525  -26.9407 H   0  0  0  0  0  0  0  0  0  0  0  0
   17.6974   17.7956  -28.7581 H   0  0  0  0  0  0  0  0  0  0  0  0
  1  2  1  0
  1  7  1  0
  1  8  1  0
  2  3  1  0
  2  6  2  0
  3  4  2  0
  3  9  1  0
  4  5  1  0
  4 10  1  0
  5  6  1  0
  5 11  1  0
M  END
> <intraLJ>
-0.199    

> <intraEL>
-8.716    

> <intraDihe>
2.079     

> <interLJ>
0.000     

> <interEJ>
0.000     

> <gridLJ>
-3.790    

> <gridEL>
0.000     

> <totalE>
-10.625   

> <LGFE>
-3.790  

> <LE>
-0.632  

> <SMILES>
Nc1cc[nH]n1

> <atom.dprop.GFE>
-1.7 -0.35 -0.29 -0.11 -0.17 -1.2 0 0 0 0 0

> <atom.prop.CLASS>
GEND GEHC GEHC GEHC GEND GENA NCLA NCLA NCLA NCLA NCLA

$$$$
