3
     RDKit          3D

  9  9  0  0  0  0  0  0  0  0999 V2000
  -36.0473    7.3561   14.3580 C   0  0  0  0  0  0  0  0  0  0  0  0
  -36.3091    8.4716   15.1448 C   0  0  0  0  0  0  0  0  0  0  0  0
  -37.4149    8.3169   15.8223 N   0  0  0  0  0  0  0  0  0  0  0  0
  -37.8715    7.0870   15.4656 N   0  0  0  0  0  0  0  0  0  0  0  0
  -37.0546    6.4817   14.5751 C   0  0  0  0  0  0  0  0  0  0  0  0
  -35.2188    7.2179   13.7117 H   0  0  0  0  0  0  0  0  0  0  0  0
  -35.7069    9.3421   15.2047 H   0  0  0  0  0  0  0  0  0  0  0  0
  -38.7463    6.6798   15.8464 H   0  0  0  0  0  0  0  0  0  0  0  0
  -37.2499    5.5181   14.1837 H   0  0  0  0  0  0  0  0  0  0  0  0
  1  2  1  0
  1  5  2  0
  1  6  1  0
  2  3  2  0
  2  7  1  0
  3  4  1  0
  4  5  1  0
  4  8  1  0
  5  9  1  0
M  END
> <intraLJ>
-0.423    

> <intraEL>
0.053     

> <intraDihe>
0.000     

> <interLJ>
0.000     

> <interEJ>
0.000     

> <gridLJ>
-2.419    

> <gridEL>
0.000     

> <totalE>
-2.788    

> <LGFE>
-2.419  

> <LE>
-0.484  

> <SMILES>
c1cn[nH]c1

> <atom.dprop.GFE>
-0.25 -0.27 -0.71 -0.98 -0.2 0 0 0 0

> <atom.prop.CLASS>
GEHC GEHC GENA GEND GEHC NCLA NCLA NCLA NCLA

$$$$
