42_1
     RDKit          3D

 17 16  0  0  1  0  0  0  0  0999 V2000
   16.9579   -1.8691  -18.7815 C   0  0  0  0  0  0  0  0  0  0  0  0
   17.8396   -2.7001  -19.5967 N   0  0  0  0  0  0  0  0  0  0  0  0
   17.7718   -4.0380  -19.6043 C   0  0  0  0  0  0  0  0  0  0  0  0
   16.9508   -4.6357  -18.9124 O   0  0  0  0  0  0  0  0  0  0  0  0
   18.7581   -4.8184  -20.5269 C   0  0  0  0  0  0  0  0  0  0  0  0
   19.7270   -3.8686  -21.2317 C   0  0  0  0  0  0  0  0  0  0  0  0
   18.0941   -5.6373  -21.5713 N   0  0  0  0  0  0  0  0  0  0  0  0
   17.1852   -0.8129  -18.9323 H   0  0  0  0  0  0  0  0  0  0  0  0
   17.0860   -2.1170  -17.7263 H   0  0  0  0  0  0  0  0  0  0  0  0
   15.9171   -2.0542  -19.0571 H   0  0  0  0  0  0  0  0  0  0  0  0
   18.5202   -2.2457  -20.1818 H   0  0  0  0  0  0  0  0  0  0  0  0
   19.3503   -5.4641  -19.8763 H   0  0  0  0  0  0  0  0  0  0  0  0
   19.1675   -3.1880  -21.8746 H   0  0  0  0  0  0  0  0  0  0  0  0
   20.4228   -4.4468  -21.8402 H   0  0  0  0  0  0  0  0  0  0  0  0
   20.2860   -3.2919  -20.4957 H   0  0  0  0  0  0  0  0  0  0  0  0
   17.5322   -5.0075  -22.1292 H   0  0  0  0  0  0  0  0  0  0  0  0
   17.4367   -6.2584  -21.1190 H   0  0  0  0  0  0  0  0  0  0  0  0
  1  2  1  0
  1  8  1  0
  1  9  1  0
  1 10  1  0
  2  3  1  0
  2 11  1  0
  3  4  2  0
  3  5  1  0
  5  6  1  0
  5  7  1  0
  5 12  1  0
  6 13  1  0
  6 14  1  0
  6 15  1  0
  7 16  1  0
  7 17  1  0
M  END
> <intraLJ>
0.644     

> <intraEL>
6.391     

> <intraDihe>
1.061     

> <interLJ>
0.000     

> <interEJ>
0.000     

> <gridLJ>
-2.563    

> <gridEL>
0.000     

> <totalE>
5.534     

> <LGFE>
-2.563  

> <LE>
-0.366  

> <SMILES>
CNC(=O)C(C)N

> <atom.dprop.GFE>
-0.19 -0.78 0 -0.64 -0.24 -0.088 -0.62 0 0 0 0 0 0 0 0 0 0

> <atom.prop.CLASS>
PRPC GEND NCLA GENA PRPC PRPC GEND NCLA NCLA NCLA NCLA NCLA NCLA NCLA NCLA NCLA NCLA

$$$$
