50_2
     RDKit          3D

 13 12  0  0  1  0  0  0  0  0999 V2000
    8.5129   -4.3644   -9.6878 C   0  0  0  0  0  0  0  0  0  0  0  0
    9.3247   -5.6615   -9.6798 C   0  0  0  0  0  0  0  0  0  0  0  0
   10.2816   -5.5363   -8.6214 N   0  0  0  0  0  0  0  0  0  0  0  0
   10.1569   -5.6973  -10.8929 C   0  0  0  0  0  0  0  0  0  0  0  0
   10.8338   -5.7251  -11.8755 C   0  0  0  0  0  0  0  0  0  0  0  0
    7.8248   -4.4079  -10.5349 H   0  0  0  0  0  0  0  0  0  0  0  0
    9.1706   -3.5005   -9.7990 H   0  0  0  0  0  0  0  0  0  0  0  0
    7.9370   -4.2974   -8.7635 H   0  0  0  0  0  0  0  0  0  0  0  0
    8.6924   -6.5404   -9.5968 H   0  0  0  0  0  0  0  0  0  0  0  0
   10.8298   -4.7190   -8.8394 H   0  0  0  0  0  0  0  0  0  0  0  0
   10.8687   -6.3563   -8.6631 H   0  0  0  0  0  0  0  0  0  0  0  0
    9.7949   -5.4487   -7.7447 H   0  0  0  0  0  0  0  0  0  0  0  0
   11.4201   -5.7535  -12.7329 H   0  0  0  0  0  0  0  0  0  0  0  0
  1  2  1  0
  1  6  1  0
  1  7  1  0
  1  8  1  0
  2  3  1  0
  2  4  1  0
  2  9  1  0
  3 10  1  0
  3 11  1  0
  3 12  1  0
  4  5  3  0
  5 13  1  0
M  CHG  1   3   1
M  END
> <intraLJ>
0.430     

> <intraEL>
-0.041    

> <intraDihe>
0.051     

> <interLJ>
0.000     

> <interEJ>
0.000     

> <gridLJ>
-2.563    

> <gridEL>
0.000     

> <totalE>
-2.123    

> <LGFE>
-2.563  

> <LE>
-0.513  

> <SMILES>
C#CC(C)[NH3+]

> <atom.dprop.GFE>
-0.12 -0.13 -1.7 -0.28 -0.32 0 0 0 0 0 0 0 0

> <atom.prop.CLASS>
PRPC PRPC MAMN PRPC PRPC NCLA NCLA NCLA NCLA NCLA NCLA NCLA NCLA

$$$$
