80
     RDKit          3D

 16 16  0  0  0  0  0  0  0  0999 V2000
  -21.7274    4.1906    7.3018 N   0  0  0  0  0  0  0  0  0  0  0  0
  -21.7957    5.1307    6.3465 C   0  0  0  0  0  0  0  0  0  0  0  0
  -21.0690    6.0876    6.4875 O   0  0  0  0  0  0  0  0  0  0  0  0
  -22.7548    4.9305    5.1852 C   0  0  0  0  0  0  0  0  0  0  0  0
  -22.3901    3.7202    4.2807 C   0  0  0  0  0  0  0  0  0  0  0  0
  -22.7932    4.6215    3.0758 C   0  0  0  0  0  0  0  0  0  0  0  0
  -22.4607    5.8530    3.9693 C   0  0  0  0  0  0  0  0  0  0  0  0
  -21.0838    4.3495    8.0586 H   0  0  0  0  0  0  0  0  0  0  0  0
  -22.2969    3.3658    7.2579 H   0  0  0  0  0  0  0  0  0  0  0  0
  -23.7902    4.9432    5.5048 H   0  0  0  0  0  0  0  0  0  0  0  0
  -23.0272    2.8579    4.4199 H   0  0  0  0  0  0  0  0  0  0  0  0
  -21.3344    3.4814    4.2805 H   0  0  0  0  0  0  0  0  0  0  0  0
  -23.8478    4.5522    2.8391 H   0  0  0  0  0  0  0  0  0  0  0  0
  -22.1520    4.5166    2.2117 H   0  0  0  0  0  0  0  0  0  0  0  0
  -21.4231    6.1499    3.8898 H   0  0  0  0  0  0  0  0  0  0  0  0
  -23.1530    6.6767    3.8628 H   0  0  0  0  0  0  0  0  0  0  0  0
  1  2  1  0
  1  8  1  0
  1  9  1  0
  2  3  2  0
  2  4  1  0
  4  5  1  0
  4  7  1  0
  4 10  1  0
  5  6  1  0
  5 11  1  0
  5 12  1  0
  6  7  1  0
  6 13  1  0
  6 14  1  0
  7 15  1  0
  7 16  1  0
M  END
> <intraLJ>
0.059     

> <intraEL>
-0.840    

> <intraDihe>
21.652    

> <interLJ>
0.000     

> <interEJ>
0.000     

> <gridLJ>
-4.699    

> <gridEL>
0.000     

> <totalE>
16.171    

> <LGFE>
-4.699  

> <LE>
-0.671  

> <SMILES>
NC(=O)C1CCC1

> <atom.dprop.GFE>
-1 0 -1.9 -0.38 -0.51 -0.53 -0.38 0 0 0 0 0 0 0 0 0

> <atom.prop.CLASS>
GEND NCLA GENA PRPC PRPC PRPC PRPC NCLA NCLA NCLA NCLA NCLA NCLA NCLA NCLA NCLA

$$$$
