21_2
     RDKit          3D

 17 16  0  0  0  0  0  0  0  0999 V2000
  -19.3044    5.4741   24.5372 C   0  0  0  0  0  0  0  0  0  0  0  0
  -19.7611    6.9467   24.6375 C   0  0  0  0  0  0  0  0  0  0  0  0
  -20.9252    7.0057   25.6483 C   0  0  0  0  0  0  0  0  0  0  0  0
  -20.2760    7.3982   23.2808 C   0  0  0  0  0  0  0  0  0  0  0  0
  -19.7703    8.4539   22.7272 N   0  0  0  0  0  0  0  0  0  0  0  0
  -20.1000    8.9676   21.5644 O   0  0  0  0  0  0  0  0  0  0  0  0
  -21.2304    6.7676   22.5900 N   0  0  0  0  0  0  0  0  0  0  0  0
  -18.8874    5.1816   25.5024 H   0  0  0  0  0  0  0  0  0  0  0  0
  -18.5328    5.4062   23.7696 H   0  0  0  0  0  0  0  0  0  0  0  0
  -20.1462    4.8269   24.2890 H   0  0  0  0  0  0  0  0  0  0  0  0
  -18.9427    7.5748   24.9640 H   0  0  0  0  0  0  0  0  0  0  0  0
  -21.7293    6.3361   25.3391 H   0  0  0  0  0  0  0  0  0  0  0  0
  -21.2864    8.0338   25.6949 H   0  0  0  0  0  0  0  0  0  0  0  0
  -20.5467    6.7059   26.6262 H   0  0  0  0  0  0  0  0  0  0  0  0
  -19.0421    8.8744   23.3316 H   0  0  0  0  0  0  0  0  0  0  0  0
  -21.4923    7.1615   21.6743 H   0  0  0  0  0  0  0  0  0  0  0  0
  -21.6694    5.9142   22.9547 H   0  0  0  0  0  0  0  0  0  0  0  0
  1  2  1  0
  1  8  1  0
  1  9  1  0
  1 10  1  0
  2  3  1  0
  2  4  1  0
  2 11  1  0
  3 12  1  0
  3 13  1  0
  3 14  1  0
  4  5  2  0
  4  7  1  0
  5  6  1  0
  5 15  1  0
  7 16  1  0
  7 17  1  0
M  CHG  2   5   1   6  -1
M  END
> <intraLJ>
4.543     

> <intraEL>
-0.793    

> <intraDihe>
0.561     

> <interLJ>
0.000     

> <interEJ>
0.000     

> <gridLJ>
-2.437    

> <gridEL>
0.000     

> <totalE>
1.872     

> <LGFE>
-2.437  

> <LE>
-0.348  

> <SMILES>
CC(C)C(N)=[NH+][O-]

> <atom.dprop.GFE>
-0.19 -0.19 -0.21 -1.8 0 0 0 0 0 0 0 0 0 0 0 0 0

> <atom.prop.CLASS>
PRPC PRPC PRPC MAMC NCLA NCLA NCLA NCLA NCLA NCLA NCLA NCLA NCLA NCLA NCLA NCLA NCLA

$$$$
