80
     RDKit          3D

 16 16  0  0  0  0  0  0  0  0999 V2000
   22.6610    9.8857  -32.4833 N   0  0  0  0  0  0  0  0  0  0  0  0
   23.2429    9.0139  -31.6453 C   0  0  0  0  0  0  0  0  0  0  0  0
   22.9977    7.8449  -31.8377 O   0  0  0  0  0  0  0  0  0  0  0  0
   24.1461    9.5435  -30.5442 C   0  0  0  0  0  0  0  0  0  0  0  0
   24.4186    8.5109  -29.4148 C   0  0  0  0  0  0  0  0  0  0  0  0
   24.2866    9.7046  -28.4227 C   0  0  0  0  0  0  0  0  0  0  0  0
   23.4006   10.4105  -29.4913 C   0  0  0  0  0  0  0  0  0  0  0  0
   22.0683    9.5069  -33.2026 H   0  0  0  0  0  0  0  0  0  0  0  0
   22.8143   10.8729  -32.3914 H   0  0  0  0  0  0  0  0  0  0  0  0
   25.0418   10.0079  -30.9396 H   0  0  0  0  0  0  0  0  0  0  0  0
   25.4058    8.0714  -29.4481 H   0  0  0  0  0  0  0  0  0  0  0  0
   23.6263    7.7840  -29.2912 H   0  0  0  0  0  0  0  0  0  0  0  0
   25.2275   10.2156  -28.2592 H   0  0  0  0  0  0  0  0  0  0  0  0
   23.7656    9.4623  -27.5069 H   0  0  0  0  0  0  0  0  0  0  0  0
   22.3528   10.1610  -29.3859 H   0  0  0  0  0  0  0  0  0  0  0  0
   23.5825   11.4722  -29.5855 H   0  0  0  0  0  0  0  0  0  0  0  0
  1  2  1  0
  1  8  1  0
  1  9  1  0
  2  3  2  0
  2  4  1  0
  4  5  1  0
  4  7  1  0
  4 10  1  0
  5  6  1  0
  5 11  1  0
  5 12  1  0
  6  7  1  0
  6 13  1  0
  6 14  1  0
  7 15  1  0
  7 16  1  0
M  END
> <intraLJ>
0.057     

> <intraEL>
-0.841    

> <intraDihe>
21.655    

> <interLJ>
0.000     

> <interEJ>
0.000     

> <gridLJ>
-2.197    

> <gridEL>
0.000     

> <totalE>
18.674    

> <LGFE>
-2.197  

> <LE>
-0.314  

> <SMILES>
NC(=O)C1CCC1

> <atom.dprop.GFE>
-1.1 0 -0.92 -0.032 -0.097 -0.077 -0.013 0 0 0 0 0 0 0 0 0

> <atom.prop.CLASS>
GEND NCLA GENA PRPC PRPC PRPC PRPC NCLA NCLA NCLA NCLA NCLA NCLA NCLA NCLA NCLA

$$$$
