2_2
     RDKit          3D

 16 16  0  0  0  0  0  0  0  0999 V2000
    4.8184   18.1979  -17.6107 C   0  0  0  0  0  0  0  0  0  0  0  0
    4.2751   19.0557  -16.4511 C   0  0  0  0  0  0  0  0  0  0  0  0
    3.9369   18.2239  -15.3418 O   0  0  0  0  0  0  0  0  0  0  0  0
    2.9789   17.2095  -15.6455 C   0  0  0  0  0  0  0  0  0  0  0  0
    3.4958   16.3177  -16.7915 C   0  0  0  0  0  0  0  0  0  0  0  0
    3.8532   17.1254  -17.9972 N   0  0  0  0  0  0  0  0  0  0  0  0
    5.7540   17.7451  -17.2709 H   0  0  0  0  0  0  0  0  0  0  0  0
    5.0425   18.8452  -18.4621 H   0  0  0  0  0  0  0  0  0  0  0  0
    3.3966   19.6147  -16.7810 H   0  0  0  0  0  0  0  0  0  0  0  0
    5.0408   19.7707  -16.1426 H   0  0  0  0  0  0  0  0  0  0  0  0
    2.0290   17.6653  -15.9279 H   0  0  0  0  0  0  0  0  0  0  0  0
    2.8149   16.5953  -14.7577 H   0  0  0  0  0  0  0  0  0  0  0  0
    2.7364   15.5709  -17.0350 H   0  0  0  0  0  0  0  0  0  0  0  0
    4.3829   15.7947  -16.4231 H   0  0  0  0  0  0  0  0  0  0  0  0
    4.2516   16.5319  -18.7143 H   0  0  0  0  0  0  0  0  0  0  0  0
    3.0134   17.5576  -18.3618 H   0  0  0  0  0  0  0  0  0  0  0  0
  1  2  1  0
  1  6  1  0
  1  7  1  0
  1  8  1  0
  2  3  1  0
  2  9  1  0
  2 10  1  0
  3  4  1  0
  4  5  1  0
  4 11  1  0
  4 12  1  0
  5  6  1  0
  5 13  1  0
  5 14  1  0
  6 15  1  0
  6 16  1  0
M  CHG  1   6   1
M  END
> <intraLJ>
0.208     

> <intraEL>
4.487     

> <intraDihe>
1.850     

> <interLJ>
0.000     

> <interEJ>
0.000     

> <gridLJ>
-2.169    

> <gridEL>
0.000     

> <totalE>
4.378     

> <LGFE>
-2.169  

> <LE>
-0.361  

> <SMILES>
C1COCC[NH2+]1

> <atom.dprop.GFE>
-0.057 -0.16 -0.24 -0.17 -0.084 -1.5 0 0 0 0 0 0 0 0 0 0

> <atom.prop.CLASS>
PRPC PRPC GENA PRPC PRPC MAMN NCLA NCLA NCLA NCLA NCLA NCLA NCLA NCLA NCLA NCLA

$$$$
