2_1
     RDKit          3D

 15 15  0  0  0  0  0  0  0  0999 V2000
  -15.1760    4.1920    7.2952 C   0  0  0  0  0  0  0  0  0  0  0  0
  -15.1303    5.6586    6.8282 C   0  0  0  0  0  0  0  0  0  0  0  0
  -16.0782    5.8963    5.7862 O   0  0  0  0  0  0  0  0  0  0  0  0
  -15.8477    5.0466    4.6611 C   0  0  0  0  0  0  0  0  0  0  0  0
  -15.9142    3.5616    5.0649 C   0  0  0  0  0  0  0  0  0  0  0  0
  -14.9613    3.2521    6.1632 N   0  0  0  0  0  0  0  0  0  0  0  0
  -16.1550    4.0111    7.7438 H   0  0  0  0  0  0  0  0  0  0  0  0
  -14.4108    4.0351    8.0565 H   0  0  0  0  0  0  0  0  0  0  0  0
  -14.1255    5.8838    6.4686 H   0  0  0  0  0  0  0  0  0  0  0  0
  -15.3533    6.3117    7.6723 H   0  0  0  0  0  0  0  0  0  0  0  0
  -14.8635    5.2537    4.2392 H   0  0  0  0  0  0  0  0  0  0  0  0
  -16.6024    5.2448    3.8997 H   0  0  0  0  0  0  0  0  0  0  0  0
  -15.6888    2.9442    4.1945 H   0  0  0  0  0  0  0  0  0  0  0  0
  -16.9339    3.3446    5.3899 H   0  0  0  0  0  0  0  0  0  0  0  0
  -15.0584    2.2900    6.4669 H   0  0  0  0  0  0  0  0  0  0  0  0
  1  2  1  0
  1  6  1  0
  1  7  1  0
  1  8  1  0
  2  3  1  0
  2  9  1  0
  2 10  1  0
  3  4  1  0
  4  5  1  0
  4 11  1  0
  4 12  1  0
  5  6  1  0
  5 13  1  0
  5 14  1  0
  6 15  1  0
M  END
> <intraLJ>
0.516     

> <intraEL>
2.915     

> <intraDihe>
4.772     

> <interLJ>
0.000     

> <interEJ>
0.000     

> <gridLJ>
-4.461    

> <gridEL>
0.000     

> <totalE>
3.741     

> <LGFE>
-4.461  

> <LE>
-0.744  

> <SMILES>
C1COCCN1

> <atom.dprop.GFE>
-0.68 -0.6 -1.3 -0.55 -0.52 -0.81 0 0 0 0 0 0 0 0 0

> <atom.prop.CLASS>
PRPC PRPC GENA PRPC PRPC GEND NCLA NCLA NCLA NCLA NCLA NCLA NCLA NCLA NCLA

$$$$
