60_2
     RDKit          3D

 14 14  0  0  0  0  0  0  0  0999 V2000
    1.3611    6.0571  -23.8399 N   0  0  0  0  0  0  0  0  0  0  0  0
    0.3621    5.9831  -22.9462 C   0  0  0  0  0  0  0  0  0  0  0  0
    0.5941    6.3295  -21.6096 C   0  0  0  0  0  0  0  0  0  0  0  0
   -0.4425    6.2470  -20.7058 C   0  0  0  0  0  0  0  0  0  0  0  0
   -1.6715    5.8311  -21.1267 N   0  0  0  0  0  0  0  0  0  0  0  0
   -1.9226    5.4888  -22.4243 C   0  0  0  0  0  0  0  0  0  0  0  0
   -0.9086    5.5596  -23.3541 C   0  0  0  0  0  0  0  0  0  0  0  0
    1.2188    5.8070  -24.8337 H   0  0  0  0  0  0  0  0  0  0  0  0
    2.3112    6.3659  -23.5663 H   0  0  0  0  0  0  0  0  0  0  0  0
    1.5588    6.6491  -21.3085 H   0  0  0  0  0  0  0  0  0  0  0  0
   -0.3661    6.4875  -19.6719 H   0  0  0  0  0  0  0  0  0  0  0  0
   -2.4442    5.7736  -20.4362 H   0  0  0  0  0  0  0  0  0  0  0  0
   -2.9184    5.1802  -22.6346 H   0  0  0  0  0  0  0  0  0  0  0  0
   -1.0770    5.2991  -24.3673 H   0  0  0  0  0  0  0  0  0  0  0  0
  1  2  1  0
  1  8  1  0
  1  9  1  0
  2  3  2  0
  2  7  1  0
  3  4  1  0
  3 10  1  0
  4  5  2  0
  4 11  1  0
  5  6  1  0
  5 12  1  0
  6  7  2  0
  6 13  1  0
  7 14  1  0
M  CHG  1   5   1
M  END
> <intraLJ>
8.489     

> <intraEL>
2.031     

> <intraDihe>
0.000     

> <interLJ>
0.000     

> <interEJ>
0.000     

> <gridLJ>
-2.170    

> <gridEL>
0.000     

> <totalE>
8.350     

> <LGFE>
-2.170  

> <LE>
-0.310  

> <SMILES>
Nc1cc[nH+]cc1

> <atom.dprop.GFE>
-0.61 -0.11 -0.12 -0.11 -1.1 -0.04 -0.076 0 0 0 0 0 0 0

> <atom.prop.CLASS>
GEND BENC BENC BENC MAMN BENC BENC NCLA NCLA NCLA NCLA NCLA NCLA NCLA

$$$$
