36_1
     RDKit          3D

 13 13  0  0  0  0  0  0  0  0999 V2000
   14.7121   -3.8118    5.3447 N   0  0  0  0  0  0  0  0  0  0  0  0
   15.8826   -2.9561    5.1872 C   0  0  0  0  0  0  0  0  0  0  0  0
   15.9935   -2.7246    3.6922 C   0  0  0  0  0  0  0  0  0  0  0  0
   16.9084   -3.2606    2.8669 C   0  0  0  0  0  0  0  0  0  0  0  0
   16.6741   -2.8137    1.6448 O   0  0  0  0  0  0  0  0  0  0  0  0
   15.6066   -2.0072    1.7653 C   0  0  0  0  0  0  0  0  0  0  0  0
   15.1628   -1.9189    2.9694 N   0  0  0  0  0  0  0  0  0  0  0  0
   14.8867   -4.6224    4.7612 H   0  0  0  0  0  0  0  0  0  0  0  0
   13.9214   -3.3352    4.9353 H   0  0  0  0  0  0  0  0  0  0  0  0
   16.7680   -3.4776    5.5270 H   0  0  0  0  0  0  0  0  0  0  0  0
   15.7245   -2.0122    5.6942 H   0  0  0  0  0  0  0  0  0  0  0  0
   17.7093   -3.9256    3.0637 H   0  0  0  0  0  0  0  0  0  0  0  0
   15.2258   -1.5224    0.9008 H   0  0  0  0  0  0  0  0  0  0  0  0
  1  2  1  0
  1  8  1  0
  1  9  1  0
  2  3  1  0
  2 10  1  0
  2 11  1  0
  3  4  2  0
  3  7  1  0
  4  5  1  0
  4 12  1  0
  5  6  1  0
  6  7  2  0
  6 13  1  0
M  END
> <intraLJ>
0.947     

> <intraEL>
3.213     

> <intraDihe>
2.703     

> <interLJ>
0.000     

> <interEJ>
0.000     

> <gridLJ>
-2.320    

> <gridEL>
0.000     

> <totalE>
4.542     

> <LGFE>
-2.320  

> <LE>
-0.331  

> <SMILES>
NCc1cocn1

> <atom.dprop.GFE>
-0.46 -0.23 -0.12 -0.15 -0.53 -0.079 -0.75 0 0 0 0 0 0

> <atom.prop.CLASS>
GEND PRPC GEHC GEHC GENA GEHC GENA NCLA NCLA NCLA NCLA NCLA NCLA

$$$$
