70_2
     RDKit          3D

 12 12  0  0  0  0  0  0  0  0999 V2000
  -20.5943    5.4719   -9.0353 N   0  0  0  0  0  0  0  0  0  0  0  0
  -21.8586    5.2069   -9.4688 C   0  0  0  0  0  0  0  0  0  0  0  0
  -23.0519    5.7924   -9.1637 C   0  0  0  0  0  0  0  0  0  0  0  0
  -24.0679    5.1523   -9.8825 C   0  0  0  0  0  0  0  0  0  0  0  0
  -25.3093    5.3300   -9.9321 O   0  0  0  0  0  0  0  0  0  0  0  0
  -23.4607    4.1829  -10.6187 N   0  0  0  0  0  0  0  0  0  0  0  0
  -22.0314    4.2195  -10.3520 N   0  0  0  0  0  0  0  0  0  0  0  0
  -20.5150    6.0207   -8.1673 H   0  0  0  0  0  0  0  0  0  0  0  0
  -19.9032    4.7193   -9.1515 H   0  0  0  0  0  0  0  0  0  0  0  0
  -23.1971    6.5974   -8.4992 H   0  0  0  0  0  0  0  0  0  0  0  0
  -23.9504    3.5452  -11.2671 H   0  0  0  0  0  0  0  0  0  0  0  0
  -21.3077    3.6317  -10.8035 H   0  0  0  0  0  0  0  0  0  0  0  0
  1  2  1  0
  1  8  1  0
  1  9  1  0
  2  3  2  0
  2  7  1  0
  3  4  1  0
  3 10  1  0
  4  5  2  0
  4  6  1  0
  6  7  1  0
  6 11  1  0
  7 12  1  0
M  END
> <intraLJ>
-0.628    

> <intraEL>
-11.018   

> <intraDihe>
1.030     

> <interLJ>
0.000     

> <interEJ>
0.000     

> <gridLJ>
-2.331    

> <gridEL>
0.000     

> <totalE>
-12.947   

> <LGFE>
-2.331  

> <LE>
-0.333  

> <SMILES>
Nc1cc(=O)[nH][nH]1

> <atom.dprop.GFE>
-0.8 -0.24 -0.12 -0.066 -0.29 -0.17 -0.64 0 0 0 0 0

> <atom.prop.CLASS>
GEND GEHC GEHC GEHC GENA GEND GEND NCLA NCLA NCLA NCLA NCLA

$$$$
