74_1
     RDKit          3D

 12 12  0  0  0  0  0  0  0  0999 V2000
    2.2784    6.1643  -27.9660 O   0  0  0  0  0  0  0  0  0  0  0  0
    2.0948    7.2106  -28.7551 C   0  0  0  0  0  0  0  0  0  0  0  0
    1.0029    7.3070  -29.6103 C   0  0  0  0  0  0  0  0  0  0  0  0
    0.8871    8.4375  -30.4032 C   0  0  0  0  0  0  0  0  0  0  0  0
    1.8776    9.4089  -30.2920 C   0  0  0  0  0  0  0  0  0  0  0  0
    2.9365    9.2211  -29.4032 C   0  0  0  0  0  0  0  0  0  0  0  0
    3.0409    8.1288  -28.6419 N   0  0  0  0  0  0  0  0  0  0  0  0
    3.1093    6.4114  -27.5173 H   0  0  0  0  0  0  0  0  0  0  0  0
    0.2853    6.5303  -29.6445 H   0  0  0  0  0  0  0  0  0  0  0  0
    0.0731    8.5580  -31.0720 H   0  0  0  0  0  0  0  0  0  0  0  0
    1.8294   10.2890  -30.8792 H   0  0  0  0  0  0  0  0  0  0  0  0
    3.6924    9.9607  -29.3158 H   0  0  0  0  0  0  0  0  0  0  0  0
  1  2  1  0
  1  8  1  0
  2  3  2  0
  2  7  1  0
  3  4  1  0
  3  9  1  0
  4  5  2  0
  4 10  1  0
  5  6  1  0
  5 11  1  0
  6  7  2  0
  6 12  1  0
M  END
> <intraLJ>
13.107    

> <intraEL>
-5.244    

> <intraDihe>
0.000     

> <interLJ>
0.000     

> <interEJ>
0.000     

> <gridLJ>
-2.268    

> <gridEL>
0.000     

> <totalE>
5.595     

> <LGFE>
-2.268  

> <LE>
-0.324  

> <SMILES>
Oc1ccccn1

> <atom.dprop.GFE>
-0.76 -0.22 0.022 0.052 0.072 -0.093 -1.3 0 0 0 0 0

> <atom.prop.CLASS>
MEOO GEHC BENC BENC BENC GEHC GENA NCLA NCLA NCLA NCLA NCLA

$$$$
