51_2
     RDKit          3D

 12 12  0  0  0  0  0  0  0  0999 V2000
  -15.0149    7.0764  -17.4252 O   0  0  0  0  0  0  0  0  0  0  0  0
  -14.0340    6.3704  -17.9969 C   0  0  0  0  0  0  0  0  0  0  0  0
  -12.5933    6.7551  -17.9541 C   0  0  0  0  0  0  0  0  0  0  0  0
  -12.0737    5.7715  -19.0188 C   0  0  0  0  0  0  0  0  0  0  0  0
  -13.1552    4.7778  -19.0937 N   0  0  0  0  0  0  0  0  0  0  0  0
  -14.3312    5.3239  -18.6173 N   0  0  0  0  0  0  0  0  0  0  0  0
  -15.7915    6.5279  -17.6444 H   0  0  0  0  0  0  0  0  0  0  0  0
  -12.1998    6.5058  -16.9793 H   0  0  0  0  0  0  0  0  0  0  0  0
  -12.4609    7.7802  -18.2641 H   0  0  0  0  0  0  0  0  0  0  0  0
  -11.1297    5.3146  -18.7156 H   0  0  0  0  0  0  0  0  0  0  0  0
  -11.9709    6.2775  -19.9806 H   0  0  0  0  0  0  0  0  0  0  0  0
  -13.2349    4.2145  -19.9614 H   0  0  0  0  0  0  0  0  0  0  0  0
  1  2  1  0
  1  7  1  0
  2  3  1  0
  2  6  2  0
  3  4  1  0
  3  8  1  0
  3  9  1  0
  4  5  1  0
  4 10  1  0
  4 11  1  0
  5  6  1  0
  5 12  1  0
M  END
> <intraLJ>
-0.691    

> <intraEL>
-4.206    

> <intraDihe>
21.287    

> <interLJ>
0.000     

> <interEJ>
0.000     

> <gridLJ>
-2.747    

> <gridEL>
0.000     

> <totalE>
13.643    

> <LGFE>
-2.747  

> <LE>
-0.458  

> <SMILES>
OC1=NNCC1

> <atom.dprop.GFE>
-0.83 -0.17 -0.12 -0.16 -0.45 -1 0 0 0 0 0 0

> <atom.prop.CLASS>
MEOO GEHC PRPC PRPC GEND GENA NCLA NCLA NCLA NCLA NCLA NCLA

$$$$
