13
     RDKit          3D

 13 12  0  0  0  0  0  0  0  0999 V2000
  -40.9842   -0.0746   27.3371 C   0  0  0  0  0  0  0  0  0  0  0  0
  -40.0643   -0.9730   28.1912 C   0  0  0  0  0  0  0  0  0  0  0  0
  -39.3057   -1.8812   27.2460 C   0  0  0  0  0  0  0  0  0  0  0  0
  -38.1420   -1.6889   26.9308 O   0  0  0  0  0  0  0  0  0  0  0  0
  -39.9468   -2.9687   26.7465 N   0  0  0  0  0  0  0  0  0  0  0  0
  -39.2734   -3.8472   25.8737 O   0  0  0  0  0  0  0  0  0  0  0  0
  -41.5548    0.5682   28.0083 H   0  0  0  0  0  0  0  0  0  0  0  0
  -41.6613   -0.7130   26.7654 H   0  0  0  0  0  0  0  0  0  0  0  0
  -40.3751    0.5307   26.6626 H   0  0  0  0  0  0  0  0  0  0  0  0
  -40.6749   -1.5907   28.8355 H   0  0  0  0  0  0  0  0  0  0  0  0
  -39.3645   -0.3558   28.7377 H   0  0  0  0  0  0  0  0  0  0  0  0
  -40.9259   -3.1893   26.9906 H   0  0  0  0  0  0  0  0  0  0  0  0
  -38.3657   -3.4651   25.7882 H   0  0  0  0  0  0  0  0  0  0  0  0
  1  2  1  0
  1  7  1  0
  1  8  1  0
  1  9  1  0
  2  3  1  0
  2 10  1  0
  2 11  1  0
  3  4  2  0
  3  5  1  0
  5  6  1  0
  5 12  1  0
  6 13  1  0
M  END
> <intraLJ>
0.075     

> <intraEL>
2.379     

> <intraDihe>
5.914     

> <interLJ>
0.000     

> <interEJ>
0.000     

> <gridLJ>
-2.419    

> <gridEL>
0.000     

> <totalE>
5.950     

> <LGFE>
-2.419  

> <LE>
-0.403  

> <SMILES>
CCC(=O)NO

> <atom.dprop.GFE>
-0.41 -0.43 0 -0.67 -0.48 -0.44 0 0 0 0 0 0 0

> <atom.prop.CLASS>
PRPC PRPC NCLA GENA GEND MEOO NCLA NCLA NCLA NCLA NCLA NCLA NCLA

$$$$
