35_1
     RDKit          3D

 10 10  0  0  0  0  0  0  0  0999 V2000
   24.8976    5.1363   -7.6851 N   0  0  0  0  0  0  0  0  0  0  0  0
   24.1409    6.2490   -7.8615 C   0  0  0  0  0  0  0  0  0  0  0  0
   24.6077    7.3237   -8.5070 N   0  0  0  0  0  0  0  0  0  0  0  0
   23.6047    8.1270   -8.4603 C   0  0  0  0  0  0  0  0  0  0  0  0
   22.5923    7.5346   -7.8190 N   0  0  0  0  0  0  0  0  0  0  0  0
   22.9336    6.2957   -7.4307 N   0  0  0  0  0  0  0  0  0  0  0  0
   24.2616    4.3384   -7.6046 H   0  0  0  0  0  0  0  0  0  0  0  0
   25.5576    5.0725   -8.4656 H   0  0  0  0  0  0  0  0  0  0  0  0
   23.5200    9.1109   -8.8455 H   0  0  0  0  0  0  0  0  0  0  0  0
   21.6684    7.9665   -7.6437 H   0  0  0  0  0  0  0  0  0  0  0  0
  1  2  1  0
  1  7  1  0
  1  8  1  0
  2  3  1  0
  2  6  2  0
  3  4  2  0
  4  5  1  0
  4  9  1  0
  5  6  1  0
  5 10  1  0
M  END
> <intraLJ>
0.124     

> <intraEL>
-9.860    

> <intraDihe>
2.848     

> <interLJ>
0.000     

> <interEJ>
0.000     

> <gridLJ>
-5.132    

> <gridEL>
0.000     

> <totalE>
-12.020   

> <LGFE>
-5.132  

> <LE>
-0.855  

> <SMILES>
Nc1nc[nH]n1

> <atom.dprop.GFE>
-0.59 -0.36 -1.3 -0.4 -1.3 -1.2 0 0 0 0

> <atom.prop.CLASS>
GEND GEHC GENA GEHC GEND GENA NCLA NCLA NCLA NCLA

$$$$
