1
     RDKit          3D

  9  9  0  0  0  0  0  0  0  0999 V2000
   20.5769   -5.3144  -20.4088 Br  0  0  0  0  0  0  0  0  0  0  0  0
   19.0630   -4.3453  -19.8540 C   0  0  0  0  0  0  0  0  0  0  0  0
   17.9390   -4.8457  -19.2039 C   0  0  0  0  0  0  0  0  0  0  0  0
   17.0717   -3.8964  -18.9633 N   0  0  0  0  0  0  0  0  0  0  0  0
   17.6497   -2.7714  -19.4659 N   0  0  0  0  0  0  0  0  0  0  0  0
   18.8605   -3.0201  -20.0122 C   0  0  0  0  0  0  0  0  0  0  0  0
   17.7865   -5.8591  -18.9328 H   0  0  0  0  0  0  0  0  0  0  0  0
   17.1919   -1.8403  -19.4226 H   0  0  0  0  0  0  0  0  0  0  0  0
   19.4580   -2.2650  -20.4521 H   0  0  0  0  0  0  0  0  0  0  0  0
  1  2  1  0
  2  3  1  0
  2  6  2  0
  3  4  2  0
  3  7  1  0
  4  5  1  0
  5  6  1  0
  5  8  1  0
  6  9  1  0
M  END
> <intraLJ>
-0.882    

> <intraEL>
0.676     

> <intraDihe>
0.000     

> <interLJ>
0.000     

> <interEJ>
0.000     

> <gridLJ>
-2.299    

> <gridEL>
0.000     

> <totalE>
-2.505    

> <LGFE>
-2.299  

> <LE>
-0.383  

> <SMILES>
Brc1cn[nH]c1

> <atom.dprop.GFE>
-0.42 -0.13 -0.15 -0.64 -0.78 -0.18 0 0 0

> <atom.prop.CLASS>
GENA GEHC GEHC GENA GEND GEHC NCLA NCLA NCLA

$$$$
