2_1
     RDKit          3D

 15 15  0  0  0  0  0  0  0  0999 V2000
   24.9562   10.0354   -8.0729 C   0  0  0  0  0  0  0  0  0  0  0  0
   23.9522    8.9453   -7.6547 C   0  0  0  0  0  0  0  0  0  0  0  0
   24.3791    7.6558   -8.0974 O   0  0  0  0  0  0  0  0  0  0  0  0
   24.5414    7.6135   -9.5161 C   0  0  0  0  0  0  0  0  0  0  0  0
   25.5628    8.6652   -9.9889 C   0  0  0  0  0  0  0  0  0  0  0  0
   25.1848   10.0317   -9.5421 N   0  0  0  0  0  0  0  0  0  0  0  0
   25.8973    9.8445   -7.5530 H   0  0  0  0  0  0  0  0  0  0  0  0
   24.5776   11.0092   -7.7597 H   0  0  0  0  0  0  0  0  0  0  0  0
   22.9780    9.1775   -8.0866 H   0  0  0  0  0  0  0  0  0  0  0  0
   23.8597    8.9394   -6.5683 H   0  0  0  0  0  0  0  0  0  0  0  0
   23.5844    7.8079  -10.0019 H   0  0  0  0  0  0  0  0  0  0  0  0
   24.8866    6.6219   -9.8096 H   0  0  0  0  0  0  0  0  0  0  0  0
   25.6275    8.6364  -11.0773 H   0  0  0  0  0  0  0  0  0  0  0  0
   26.5382    8.3992   -9.5759 H   0  0  0  0  0  0  0  0  0  0  0  0
   25.8951   10.7070   -9.8005 H   0  0  0  0  0  0  0  0  0  0  0  0
  1  2  1  0
  1  6  1  0
  1  7  1  0
  1  8  1  0
  2  3  1  0
  2  9  1  0
  2 10  1  0
  3  4  1  0
  4  5  1  0
  4 11  1  0
  4 12  1  0
  5  6  1  0
  5 13  1  0
  5 14  1  0
  6 15  1  0
M  END
> <intraLJ>
0.516     

> <intraEL>
2.915     

> <intraDihe>
4.772     

> <interLJ>
0.000     

> <interEJ>
0.000     

> <gridLJ>
-3.062    

> <gridEL>
0.000     

> <totalE>
5.141     

> <LGFE>
-3.062  

> <LE>
-0.510  

> <SMILES>
C1COCCN1

> <atom.dprop.GFE>
-0.26 -0.33 -1.3 -0.41 -0.28 -0.51 0 0 0 0 0 0 0 0 0

> <atom.prop.CLASS>
PRPC PRPC GENA PRPC PRPC GEND NCLA NCLA NCLA NCLA NCLA NCLA NCLA NCLA NCLA

$$$$
