3
     RDKit          3D

  9  9  0  0  0  0  0  0  0  0999 V2000
   19.4553   -3.8493  -10.8269 C   0  0  0  0  0  0  0  0  0  0  0  0
   20.5996   -4.3579  -11.4300 C   0  0  0  0  0  0  0  0  0  0  0  0
   20.8399   -3.7529  -12.5622 N   0  0  0  0  0  0  0  0  0  0  0  0
   19.8364   -2.8446  -12.6903 N   0  0  0  0  0  0  0  0  0  0  0  0
   18.9808   -2.8838  -11.6448 C   0  0  0  0  0  0  0  0  0  0  0  0
   19.0350   -4.1592   -9.9046 H   0  0  0  0  0  0  0  0  0  0  0  0
   21.2121   -5.1315  -11.0422 H   0  0  0  0  0  0  0  0  0  0  0  0
   19.7573   -2.2049  -13.5032 H   0  0  0  0  0  0  0  0  0  0  0  0
   18.1377   -2.2483  -11.5723 H   0  0  0  0  0  0  0  0  0  0  0  0
  1  2  1  0
  1  5  2  0
  1  6  1  0
  2  3  2  0
  2  7  1  0
  3  4  1  0
  4  5  1  0
  4  8  1  0
  5  9  1  0
M  END
> <intraLJ>
-0.423    

> <intraEL>
0.053     

> <intraDihe>
0.000     

> <interLJ>
0.000     

> <interEJ>
0.000     

> <gridLJ>
-2.217    

> <gridEL>
0.000     

> <totalE>
-2.586    

> <LGFE>
-2.217  

> <LE>
-0.443  

> <SMILES>
c1cn[nH]c1

> <atom.dprop.GFE>
-0.21 -0.19 -0.73 -0.84 -0.25 0 0 0 0

> <atom.prop.CLASS>
GEHC GEHC GENA GEND GEHC NCLA NCLA NCLA NCLA

$$$$
