40_3
     RDKit          3D

 11 11  0  0  0  0  0  0  0  0999 V2000
   10.4238   -6.4084  -15.5154 O   0  0  0  0  0  0  0  0  0  0  0  0
   10.2826   -6.1607  -14.3004 C   0  0  0  0  0  0  0  0  0  0  0  0
   11.0917   -5.1793  -13.6599 C   0  0  0  0  0  0  0  0  0  0  0  0
   10.9174   -4.9279  -12.3338 C   0  0  0  0  0  0  0  0  0  0  0  0
    9.9535   -5.6358  -11.6372 N   0  0  0  0  0  0  0  0  0  0  0  0
    9.1639   -6.5795  -12.2200 N   0  0  0  0  0  0  0  0  0  0  0  0
    9.3136   -6.8372  -13.4898 C   0  0  0  0  0  0  0  0  0  0  0  0
   11.8162   -4.6645  -14.2341 H   0  0  0  0  0  0  0  0  0  0  0  0
   11.4683   -4.2182  -11.7669 H   0  0  0  0  0  0  0  0  0  0  0  0
    9.8092   -5.4524  -10.6196 H   0  0  0  0  0  0  0  0  0  0  0  0
    8.6981   -7.5728  -13.9385 H   0  0  0  0  0  0  0  0  0  0  0  0
  1  2  2  0
  2  3  1  0
  2  7  1  0
  3  4  2  0
  3  8  1  0
  4  5  1  0
  4  9  1  0
  5  6  1  0
  5 10  1  0
  6  7  2  0
  7 11  1  0
M  END
> <intraLJ>
10.148    

> <intraEL>
-0.725    

> <intraDihe>
0.000     

> <interLJ>
0.000     

> <interEJ>
0.000     

> <gridLJ>
-2.205    

> <gridEL>
0.000     

> <totalE>
7.217     

> <LGFE>
-2.205  

> <LE>
-0.315  

> <SMILES>
O=c1cc[nH]nc1

> <atom.dprop.GFE>
-0.39 -0.11 -0.15 -0.16 -0.68 -0.59 -0.12 0 0 0 0

> <atom.prop.CLASS>
GENA GEHC BENC BENC GEND GENA BENC NCLA NCLA NCLA NCLA

$$$$
