34
     RDKit          3D

 19 19  0  0  0  0  0  0  0  0999 V2000
  -16.0846   -6.6843   -6.9024 O   0  0  0  0  0  0  0  0  0  0  0  0
  -16.4354   -8.0080   -7.2301 C   0  0  0  0  0  0  0  0  0  0  0  0
  -15.1737   -8.8777   -7.1992 C   0  0  0  0  0  0  0  0  0  0  0  0
  -15.4776  -10.3121   -7.6634 C   0  0  0  0  0  0  0  0  0  0  0  0
  -16.1182  -10.3131   -9.0591 C   0  0  0  0  0  0  0  0  0  0  0  0
  -17.3815   -9.4395   -9.0913 C   0  0  0  0  0  0  0  0  0  0  0  0
  -17.0680   -8.0097   -8.6251 C   0  0  0  0  0  0  0  0  0  0  0  0
  -15.6874   -6.6776   -6.0290 H   0  0  0  0  0  0  0  0  0  0  0  0
  -17.1606   -8.3901   -6.5081 H   0  0  0  0  0  0  0  0  0  0  0  0
  -14.7755   -8.9055   -6.1845 H   0  0  0  0  0  0  0  0  0  0  0  0
  -14.4232   -8.4387   -7.8579 H   0  0  0  0  0  0  0  0  0  0  0  0
  -16.1599  -10.7854   -6.9538 H   0  0  0  0  0  0  0  0  0  0  0  0
  -14.5522  -10.8886   -7.6891 H   0  0  0  0  0  0  0  0  0  0  0  0
  -16.3763  -11.3359   -9.3395 H   0  0  0  0  0  0  0  0  0  0  0  0
  -15.3987   -9.9301   -9.7853 H   0  0  0  0  0  0  0  0  0  0  0  0
  -18.1408   -9.8757   -8.4387 H   0  0  0  0  0  0  0  0  0  0  0  0
  -17.7765   -9.4101  -10.1082 H   0  0  0  0  0  0  0  0  0  0  0  0
  -16.3776   -7.5413   -9.3287 H   0  0  0  0  0  0  0  0  0  0  0  0
  -17.9871   -7.4236   -8.6005 H   0  0  0  0  0  0  0  0  0  0  0  0
  1  2  1  0
  1  8  1  0
  2  3  1  0
  2  7  1  0
  2  9  1  0
  3  4  1  0
  3 10  1  0
  3 11  1  0
  4  5  1  0
  4 12  1  0
  4 13  1  0
  5  6  1  0
  5 14  1  0
  5 15  1  0
  6  7  1  0
  6 16  1  0
  6 17  1  0
  7 18  1  0
  7 19  1  0
M  END
> <intraLJ>
-0.471    

> <intraEL>
-1.198    

> <intraDihe>
8.631     

> <interLJ>
0.000     

> <interEJ>
0.000     

> <gridLJ>
-2.451    

> <gridEL>
0.000     

> <totalE>
4.511     

> <LGFE>
-2.451  

> <LE>
-0.350  

> <SMILES>
OC1CCCCC1

> <atom.dprop.GFE>
-1.4 -0.15 -0.18 -0.14 -0.22 -0.21 -0.15 0 0 0 0 0 0 0 0 0 0 0 0

> <atom.prop.CLASS>
MEOO PRPC PRPC PRPC PRPC PRPC PRPC NCLA NCLA NCLA NCLA NCLA NCLA NCLA NCLA NCLA NCLA NCLA NCLA

$$$$
