14_1
     RDKit          3D

 18 18  0  0  1  0  0  0  0  0999 V2000
  -23.0845   -6.8109   -8.2973 C   0  0  0  0  0  0  0  0  0  0  0  0
  -23.2534   -6.4840   -6.8738 N   0  0  0  0  0  0  0  0  0  0  0  0
  -23.9656   -5.2083   -6.6887 C   0  0  0  0  0  0  0  0  0  0  0  0
  -24.7297   -5.3835   -5.3598 C   0  0  0  0  0  0  0  0  0  0  0  0
  -24.3614   -6.7832   -4.8761 C   0  0  0  0  0  0  0  0  0  0  0  0
  -23.1683   -6.6988   -4.1303 O   0  0  0  0  0  0  0  0  0  0  0  0
  -24.0265   -7.5189   -6.1737 C   0  0  0  0  0  0  0  0  0  0  0  0
  -22.5079   -6.0140   -8.7505 H   0  0  0  0  0  0  0  0  0  0  0  0
  -24.0611   -6.8952   -8.7562 H   0  0  0  0  0  0  0  0  0  0  0  0
  -22.5442   -7.7458   -8.3580 H   0  0  0  0  0  0  0  0  0  0  0  0
  -23.2457   -4.4039   -6.5966 H   0  0  0  0  0  0  0  0  0  0  0  0
  -24.6845   -5.0481   -7.4828 H   0  0  0  0  0  0  0  0  0  0  0  0
  -25.8021   -5.3299   -5.5450 H   0  0  0  0  0  0  0  0  0  0  0  0
  -24.4366   -4.6284   -4.6303 H   0  0  0  0  0  0  0  0  0  0  0  0
  -25.1589   -7.2370   -4.2849 H   0  0  0  0  0  0  0  0  0  0  0  0
  -22.5083   -6.4805   -4.8020 H   0  0  0  0  0  0  0  0  0  0  0  0
  -24.9453   -7.7349   -6.7028 H   0  0  0  0  0  0  0  0  0  0  0  0
  -23.4198   -8.3916   -5.9677 H   0  0  0  0  0  0  0  0  0  0  0  0
  1  2  1  0
  1  8  1  0
  1  9  1  0
  1 10  1  0
  2  3  1  0
  2  7  1  0
  3  4  1  0
  3 11  1  0
  3 12  1  0
  4  5  1  0
  4 13  1  0
  4 14  1  0
  5  6  1  0
  5  7  1  0
  5 15  1  0
  6 16  1  0
  7 17  1  0
  7 18  1  0
M  END
> <intraLJ>
3.504     

> <intraEL>
0.090     

> <intraDihe>
11.625    

> <interLJ>
0.000     

> <interEJ>
0.000     

> <gridLJ>
-2.018    

> <gridEL>
0.000     

> <totalE>
13.201    

> <LGFE>
-2.018  

> <LE>
-0.288  

> <SMILES>
CN1CCC(O)C1

> <atom.dprop.GFE>
-0.2 -0.4 -0.25 -0.28 -0.21 -0.47 -0.21 0 0 0 0 0 0 0 0 0 0 0

> <atom.prop.CLASS>
PRPC GEND PRPC PRPC PRPC MEOO PRPC NCLA NCLA NCLA NCLA NCLA NCLA NCLA NCLA NCLA NCLA NCLA

$$$$
