29_1
     RDKit          3D

 12 12  0  0  0  0  0  0  0  0999 V2000
    2.7024    4.2858  -34.1214 N   0  0  0  0  0  0  0  0  0  0  0  0
    1.5387    5.0107  -34.3450 C   0  0  0  0  0  0  0  0  0  0  0  0
    0.9247    5.8013  -33.4300 C   0  0  0  0  0  0  0  0  0  0  0  0
   -0.4708    6.5230  -34.1246 S   0  0  0  0  0  0  0  0  0  0  0  0
   -0.0729    5.6758  -35.5775 C   0  0  0  0  0  0  0  0  0  0  0  0
   -0.8550    5.8038  -36.6958 N   0  0  0  0  0  0  0  0  0  0  0  0
    0.9900    4.9318  -35.5764 N   0  0  0  0  0  0  0  0  0  0  0  0
    3.0753    4.0190  -35.0422 H   0  0  0  0  0  0  0  0  0  0  0  0
    3.3767    4.8453  -33.5875 H   0  0  0  0  0  0  0  0  0  0  0  0
    1.2161    5.9721  -32.4286 H   0  0  0  0  0  0  0  0  0  0  0  0
   -0.3297    5.5487  -37.5404 H   0  0  0  0  0  0  0  0  0  0  0  0
   -1.3557    6.6988  -36.7404 H   0  0  0  0  0  0  0  0  0  0  0  0
  1  2  1  0
  1  8  1  0
  1  9  1  0
  2  3  2  0
  2  7  1  0
  3  4  1  0
  3 10  1  0
  4  5  1  0
  5  6  1  0
  5  7  2  0
  6 11  1  0
  6 12  1  0
M  END
> <intraLJ>
-0.273    

> <intraEL>
-13.389   

> <intraDihe>
3.347     

> <interLJ>
0.000     

> <interEJ>
0.000     

> <gridLJ>
-2.008    

> <gridEL>
0.000     

> <totalE>
-12.323   

> <LGFE>
-2.008  

> <LE>
-0.287  

> <SMILES>
Nc1csc(N)n1

> <atom.dprop.GFE>
-0.74 -0.16 -0.13 -0.075 -0.066 -0.23 -0.61 0 0 0 0 0

> <atom.prop.CLASS>
GEND GEHC GEHC PRPC GEHC GEND GENA NCLA NCLA NCLA NCLA NCLA

$$$$
