18
     RDKit          3D

 13 13  0  0  0  0  0  0  0  0999 V2000
  -23.9076    2.9532    4.3852 O   0  0  0  0  0  0  0  0  0  0  0  0
  -22.5013    3.1545    4.6143 C   0  0  0  0  0  0  0  0  0  0  0  0
  -22.1993    3.2118    6.2022 C   0  0  0  0  0  0  0  0  0  0  0  0
  -21.9079    4.9232    6.0603 S   0  0  0  0  0  0  0  0  0  0  0  0
  -20.5544    5.2343    6.3714 O   0  0  0  0  0  0  0  0  0  0  0  0
  -22.9617    5.6876    6.6353 O   0  0  0  0  0  0  0  0  0  0  0  0
  -22.1207    4.7050    4.3464 C   0  0  0  0  0  0  0  0  0  0  0  0
  -24.1491    2.0154    4.4786 H   0  0  0  0  0  0  0  0  0  0  0  0
  -21.9031    2.4422    4.0619 H   0  0  0  0  0  0  0  0  0  0  0  0
  -21.3601    2.5601    6.4052 H   0  0  0  0  0  0  0  0  0  0  0  0
  -23.0812    2.8610    6.7219 H   0  0  0  0  0  0  0  0  0  0  0  0
  -22.9599    5.1722    3.8478 H   0  0  0  0  0  0  0  0  0  0  0  0
  -21.2458    4.7281    3.7110 H   0  0  0  0  0  0  0  0  0  0  0  0
  1  2  1  0
  1  8  1  0
  2  3  1  0
  2  7  1  0
  2  9  1  0
  3  4  1  0
  3 10  1  0
  3 11  1  0
  4  5  2  0
  4  6  2  0
  4  7  1  0
  7 12  1  0
  7 13  1  0
M  END
> <intraLJ>
0.307     

> <intraEL>
-1.458    

> <intraDihe>
23.153    

> <interLJ>
0.000     

> <interEJ>
0.000     

> <gridLJ>
-5.024    

> <gridEL>
0.000     

> <totalE>
16.978    

> <LGFE>
-5.024  

> <LE>
-0.718  

> <SMILES>
O=S1(=O)CC(O)C1

> <atom.dprop.GFE>
-1.1 -0.4 -0.3 0 -1.9 -0.9 -0.44 0 0 0 0 0 0

> <atom.prop.CLASS>
MEOO PRPC PRPC NCLA GENA GENA PRPC NCLA NCLA NCLA NCLA NCLA NCLA

$$$$
