30_1
     RDKit          3D

 15 15  0  0  1  0  0  0  0  0999 V2000
  -28.0756   -4.9597    5.3392 N   0  0  0  0  0  0  0  0  0  0  0  0
  -27.5194   -5.1011    3.9667 C   0  0  0  0  0  0  0  0  0  0  0  0
  -28.0099   -6.4073    3.3264 C   0  0  0  0  0  0  0  0  0  0  0  0
  -26.8531   -6.7951    2.3912 C   0  0  0  0  0  0  0  0  0  0  0  0
  -25.6840   -6.2242    3.0276 N   0  0  0  0  0  0  0  0  0  0  0  0
  -25.9902   -5.2551    3.8709 C   0  0  0  0  0  0  0  0  0  0  0  0
  -25.1674   -4.5884    4.4870 O   0  0  0  0  0  0  0  0  0  0  0  0
  -28.9645   -4.4813    5.3131 H   0  0  0  0  0  0  0  0  0  0  0  0
  -27.4136   -4.4228    5.8898 H   0  0  0  0  0  0  0  0  0  0  0  0
  -27.7907   -4.2625    3.3228 H   0  0  0  0  0  0  0  0  0  0  0  0
  -28.1161   -7.1706    4.0981 H   0  0  0  0  0  0  0  0  0  0  0  0
  -28.9463   -6.2696    2.7879 H   0  0  0  0  0  0  0  0  0  0  0  0
  -26.9974   -6.3481    1.4048 H   0  0  0  0  0  0  0  0  0  0  0  0
  -26.7747   -7.8818    2.3056 H   0  0  0  0  0  0  0  0  0  0  0  0
  -24.7296   -6.4921    2.8439 H   0  0  0  0  0  0  0  0  0  0  0  0
  1  2  1  0
  1  8  1  0
  1  9  1  0
  2  3  1  0
  2  6  1  0
  2 10  1  0
  3  4  1  0
  3 11  1  0
  3 12  1  0
  4  5  1  0
  4 13  1  0
  4 14  1  0
  5  6  1  0
  5 15  1  0
  6  7  2  0
M  END
> <intraLJ>
0.264     

> <intraEL>
2.285     

> <intraDihe>
8.139     

> <interLJ>
0.000     

> <interEJ>
0.000     

> <gridLJ>
-4.077    

> <gridEL>
0.000     

> <totalE>
6.612     

> <LGFE>
-4.077  

> <LE>
-0.582  

> <SMILES>
NC1CCNC1=O

> <atom.dprop.GFE>
-0.56 -0.37 -0.34 -0.37 -0.92 -0.13 -1.4 0 0 0 0 0 0 0 0

> <atom.prop.CLASS>
GEND PRPC PRPC PRPC GEND GEHC GENA NCLA NCLA NCLA NCLA NCLA NCLA NCLA NCLA

$$$$
