59_1
     RDKit          3D

 10  9  0  0  0  0  0  0  0  0999 V2000
  -26.8769  -18.2333    7.9314 C   0  0  0  0  0  0  0  0  0  0  0  0
  -26.7131  -16.9011    8.6303 C   0  0  0  0  0  0  0  0  0  0  0  0
  -26.9374  -15.8937    7.9862 O   0  0  0  0  0  0  0  0  0  0  0  0
  -26.2951  -16.8628   10.0472 C   0  0  0  0  0  0  0  0  0  0  0  0
  -26.1082  -17.8412   10.7449 O   0  0  0  0  0  0  0  0  0  0  0  0
  -26.0794  -15.7355   10.7022 O   0  0  0  0  0  0  0  0  0  0  0  0
  -27.6270  -18.7860    8.4797 H   0  0  0  0  0  0  0  0  0  0  0  0
  -25.9183  -18.7326    7.9760 H   0  0  0  0  0  0  0  0  0  0  0  0
  -27.1835  -18.0385    6.9131 H   0  0  0  0  0  0  0  0  0  0  0  0
  -25.8257  -16.0707   11.5827 H   0  0  0  0  0  0  0  0  0  0  0  0
  1  2  1  0
  1  7  1  0
  1  8  1  0
  1  9  1  0
  2  3  2  0
  2  4  1  0
  4  5  2  0
  4  6  1  0
  6 10  1  0
M  END
> <intraLJ>
-0.537    

> <intraEL>
-0.051    

> <intraDihe>
2.121     

> <interLJ>
0.000     

> <interEJ>
0.000     

> <gridLJ>
-2.154    

> <gridEL>
0.000     

> <totalE>
-0.621    

> <LGFE>
-2.154  

> <LE>
-0.359  

> <SMILES>
CC(=O)C(=O)O

> <atom.dprop.GFE>
-0.25 0 -0.33 0 -0.88 -0.69 0 0 0 0

> <atom.prop.CLASS>
PRPC NCLA GENA NCLA GENA MEOO NCLA NCLA NCLA NCLA

$$$$
