73
     RDKit          3D

 13 13  0  0  0  0  0  0  0  0999 V2000
   10.5524   -9.8894  -30.7767 O   0  0  0  0  0  0  0  0  0  0  0  0
   10.9463   -9.7238  -29.6334 C   0  0  0  0  0  0  0  0  0  0  0  0
   10.0677   -9.3966  -28.4482 C   0  0  0  0  0  0  0  0  0  0  0  0
   10.9747   -9.7145  -27.2446 C   0  0  0  0  0  0  0  0  0  0  0  0
   12.3807   -9.5424  -27.8369 C   0  0  0  0  0  0  0  0  0  0  0  0
   12.1954   -9.8581  -29.2378 N   0  0  0  0  0  0  0  0  0  0  0  0
    9.1720  -10.0154  -28.4494 H   0  0  0  0  0  0  0  0  0  0  0  0
    9.8203   -8.3365  -28.4750 H   0  0  0  0  0  0  0  0  0  0  0  0
   10.8338  -10.7543  -26.9441 H   0  0  0  0  0  0  0  0  0  0  0  0
   10.7989   -9.0389  -26.4056 H   0  0  0  0  0  0  0  0  0  0  0  0
   13.0905  -10.2214  -27.3588 H   0  0  0  0  0  0  0  0  0  0  0  0
   12.7124   -8.5064  -27.7288 H   0  0  0  0  0  0  0  0  0  0  0  0
   12.9349  -10.0801  -29.8844 H   0  0  0  0  0  0  0  0  0  0  0  0
  1  2  2  0
  2  3  1  0
  2  6  1  0
  3  4  1  0
  3  7  1  0
  3  8  1  0
  4  5  1  0
  4  9  1  0
  4 10  1  0
  5  6  1  0
  5 11  1  0
  5 12  1  0
  6 13  1  0
M  END
> <intraLJ>
-0.403    

> <intraEL>
-2.564    

> <intraDihe>
6.839     

> <interLJ>
0.000     

> <interEJ>
0.000     

> <gridLJ>
-2.079    

> <gridEL>
0.000     

> <totalE>
1.792     

> <LGFE>
-2.079  

> <LE>
-0.347  

> <SMILES>
O=C1CCCN1

> <atom.dprop.GFE>
-0.54 -0.1 -0.39 -0.33 -0.39 -0.33 0 0 0 0 0 0 0

> <atom.prop.CLASS>
GENA GEHC PRPC PRPC PRPC GEND NCLA NCLA NCLA NCLA NCLA NCLA NCLA

$$$$
