3
     RDKit          3D

  9  9  0  0  0  0  0  0  0  0999 V2000
  -27.0532  -16.2068    9.3881 C   0  0  0  0  0  0  0  0  0  0  0  0
  -26.9928  -17.2630   10.2896 C   0  0  0  0  0  0  0  0  0  0  0  0
  -26.1747  -16.9936   11.2714 N   0  0  0  0  0  0  0  0  0  0  0  0
  -25.7010  -15.7491   10.9971 N   0  0  0  0  0  0  0  0  0  0  0  0
  -26.2226  -15.2486    9.8551 C   0  0  0  0  0  0  0  0  0  0  0  0
  -27.6366  -16.1617    8.5044 H   0  0  0  0  0  0  0  0  0  0  0  0
  -27.5299  -18.1739   10.2130 H   0  0  0  0  0  0  0  0  0  0  0  0
  -25.0207  -15.2591   11.6080 H   0  0  0  0  0  0  0  0  0  0  0  0
  -25.9690  -14.2910    9.4828 H   0  0  0  0  0  0  0  0  0  0  0  0
  1  2  1  0
  1  5  2  0
  1  6  1  0
  2  3  2  0
  2  7  1  0
  3  4  1  0
  4  5  1  0
  4  8  1  0
  5  9  1  0
M  END
> <intraLJ>
-0.423    

> <intraEL>
0.053     

> <intraDihe>
0.000     

> <interLJ>
0.000     

> <interEJ>
0.000     

> <gridLJ>
-2.495    

> <gridEL>
0.000     

> <totalE>
-2.864    

> <LGFE>
-2.495  

> <LE>
-0.499  

> <SMILES>
c1cn[nH]c1

> <atom.dprop.GFE>
-0.18 -0.12 -0.88 -1.1 -0.16 0 0 0 0

> <atom.prop.CLASS>
GEHC GEHC GENA GEND GEHC NCLA NCLA NCLA NCLA

$$$$
