81_2
     RDKit          3D

 19 19  0  0  1  0  0  0  0  0999 V2000
  -38.8686    7.2242   16.3557 N   0  0  0  0  0  0  0  0  0  0  0  0
  -39.7158    7.8730   17.3875 C   0  0  0  0  0  0  0  0  0  0  0  0
  -39.8030    6.9713   18.6292 C   0  0  0  0  0  0  0  0  0  0  0  0
  -40.4761    5.6235   18.3903 C   0  0  0  0  0  0  0  0  0  0  0  0
  -41.0360    5.2879   19.7735 C   0  0  0  0  0  0  0  0  0  0  0  0
  -41.0065    6.6141   20.5371 C   0  0  0  0  0  0  0  0  0  0  0  0
  -40.6463    7.5981   19.5788 O   0  0  0  0  0  0  0  0  0  0  0  0
  -38.6727    7.8359   15.5784 H   0  0  0  0  0  0  0  0  0  0  0  0
  -39.2885    6.3607   16.0439 H   0  0  0  0  0  0  0  0  0  0  0  0
  -38.0112    6.9633   16.8406 H   0  0  0  0  0  0  0  0  0  0  0  0
  -39.2486    8.8113   17.6966 H   0  0  0  0  0  0  0  0  0  0  0  0
  -40.7193    8.0892   17.0126 H   0  0  0  0  0  0  0  0  0  0  0  0
  -38.8115    6.8219   19.0624 H   0  0  0  0  0  0  0  0  0  0  0  0
  -41.2983    5.7260   17.6785 H   0  0  0  0  0  0  0  0  0  0  0  0
  -39.7644    4.8681   18.0523 H   0  0  0  0  0  0  0  0  0  0  0  0
  -40.4037    4.5563   20.2808 H   0  0  0  0  0  0  0  0  0  0  0  0
  -42.0568    4.9079   19.6970 H   0  0  0  0  0  0  0  0  0  0  0  0
  -40.2521    6.5671   21.3250 H   0  0  0  0  0  0  0  0  0  0  0  0
  -41.9813    6.8358   20.9772 H   0  0  0  0  0  0  0  0  0  0  0  0
  1  2  1  0
  1  8  1  0
  1  9  1  0
  1 10  1  0
  2  3  1  0
  2 11  1  0
  2 12  1  0
  3  4  1  0
  3  7  1  0
  3 13  1  0
  4  5  1  0
  4 14  1  0
  4 15  1  0
  5  6  1  0
  5 16  1  0
  5 17  1  0
  6  7  1  0
  6 18  1  0
  6 19  1  0
M  CHG  1   1   1
M  END
> <intraLJ>
-0.744    

> <intraEL>
2.671     

> <intraDihe>
7.602     

> <interLJ>
0.000     

> <interEJ>
0.000     

> <gridLJ>
-3.820    

> <gridEL>
0.000     

> <totalE>
5.709     

> <LGFE>
-3.820  

> <LE>
-0.546  

> <SMILES>
[NH3+]CC1CCCO1

> <atom.dprop.GFE>
-0.59 -0.38 -0.53 -0.49 -0.56 -0.5 -0.76 0 0 0 0 0 0 0 0 0 0 0 0

> <atom.prop.CLASS>
MAMN PRPC PRPC PRPC PRPC PRPC GENA NCLA NCLA NCLA NCLA NCLA NCLA NCLA NCLA NCLA NCLA NCLA NCLA

$$$$
