2_1
     RDKit          3D

 15 15  0  0  0  0  0  0  0  0999 V2000
   19.6161    4.7387  -48.9344 C   0  0  0  0  0  0  0  0  0  0  0  0
   18.8875    3.3829  -48.9801 C   0  0  0  0  0  0  0  0  0  0  0  0
   19.7764    2.3105  -48.6629 O   0  0  0  0  0  0  0  0  0  0  0  0
   20.8889    2.2665  -49.5581 C   0  0  0  0  0  0  0  0  0  0  0  0
   21.6762    3.5903  -49.5295 C   0  0  0  0  0  0  0  0  0  0  0  0
   20.8002    4.7523  -49.8336 N   0  0  0  0  0  0  0  0  0  0  0  0
   19.9333    4.9166  -47.9047 H   0  0  0  0  0  0  0  0  0  0  0  0
   18.9216    5.5279  -49.2252 H   0  0  0  0  0  0  0  0  0  0  0  0
   18.4771    3.2358  -49.9799 H   0  0  0  0  0  0  0  0  0  0  0  0
   18.0659    3.3920  -48.2635 H   0  0  0  0  0  0  0  0  0  0  0  0
   20.5363    2.0879  -50.5747 H   0  0  0  0  0  0  0  0  0  0  0  0
   21.5510    1.4498  -49.2699 H   0  0  0  0  0  0  0  0  0  0  0  0
   22.4882    3.5389  -50.2558 H   0  0  0  0  0  0  0  0  0  0  0  0
   22.1082    3.7055  -48.5332 H   0  0  0  0  0  0  0  0  0  0  0  0
   21.3110    5.6234  -49.7480 H   0  0  0  0  0  0  0  0  0  0  0  0
  1  2  1  0
  1  6  1  0
  1  7  1  0
  1  8  1  0
  2  3  1  0
  2  9  1  0
  2 10  1  0
  3  4  1  0
  4  5  1  0
  4 11  1  0
  4 12  1  0
  5  6  1  0
  5 13  1  0
  5 14  1  0
  6 15  1  0
M  END
> <intraLJ>
0.516     

> <intraEL>
2.915     

> <intraDihe>
4.772     

> <interLJ>
0.000     

> <interEJ>
0.000     

> <gridLJ>
-2.483    

> <gridEL>
0.000     

> <totalE>
5.720     

> <LGFE>
-2.483  

> <LE>
-0.414  

> <SMILES>
C1COCCN1

> <atom.dprop.GFE>
-0.38 -0.41 -0.61 -0.37 -0.26 -0.46 0 0 0 0 0 0 0 0 0

> <atom.prop.CLASS>
PRPC PRPC GENA PRPC PRPC GEND NCLA NCLA NCLA NCLA NCLA NCLA NCLA NCLA NCLA

$$$$
