59_1
     RDKit          3D

 10  9  0  0  0  0  0  0  0  0999 V2000
   12.8623    8.8367  -41.6507 C   0  0  0  0  0  0  0  0  0  0  0  0
   12.1931    7.5763  -42.1545 C   0  0  0  0  0  0  0  0  0  0  0  0
   11.1588    7.2313  -41.6148 O   0  0  0  0  0  0  0  0  0  0  0  0
   12.8022    6.8166  -43.2661 C   0  0  0  0  0  0  0  0  0  0  0  0
   13.9234    6.9974  -43.7011 O   0  0  0  0  0  0  0  0  0  0  0  0
   12.1707    5.8470  -43.9043 O   0  0  0  0  0  0  0  0  0  0  0  0
   12.9153    9.5203  -42.4866 H   0  0  0  0  0  0  0  0  0  0  0  0
   13.8521    8.5561  -41.3167 H   0  0  0  0  0  0  0  0  0  0  0  0
   12.2610    9.2321  -40.8439 H   0  0  0  0  0  0  0  0  0  0  0  0
   12.8452    5.5741  -44.5544 H   0  0  0  0  0  0  0  0  0  0  0  0
  1  2  1  0
  1  7  1  0
  1  8  1  0
  1  9  1  0
  2  3  2  0
  2  4  1  0
  4  5  2  0
  4  6  1  0
  6 10  1  0
M  END
> <intraLJ>
-0.547    

> <intraEL>
-0.058    

> <intraDihe>
2.144     

> <interLJ>
0.000     

> <interEJ>
0.000     

> <gridLJ>
-2.429    

> <gridEL>
0.000     

> <totalE>
-0.890    

> <LGFE>
-2.429  

> <LE>
-0.405  

> <SMILES>
CC(=O)C(=O)O

> <atom.dprop.GFE>
-0.19 0 -0.93 0 -0.7 -0.61 0 0 0 0

> <atom.prop.CLASS>
PRPC NCLA GENA NCLA GENA MEOO NCLA NCLA NCLA NCLA

$$$$
