29_2
     RDKit          3D

 13 13  0  0  0  0  0  0  0  0999 V2000
  -30.1763   16.9906   30.2714 N   0  0  0  0  0  0  0  0  0  0  0  0
  -30.1607   16.5860   31.5998 C   0  0  0  0  0  0  0  0  0  0  0  0
  -29.1056   16.4359   32.4336 C   0  0  0  0  0  0  0  0  0  0  0  0
  -29.6322   15.9355   34.0095 S   0  0  0  0  0  0  0  0  0  0  0  0
  -31.2560   15.9711   33.4721 C   0  0  0  0  0  0  0  0  0  0  0  0
  -32.3161   15.6787   34.2493 N   0  0  0  0  0  0  0  0  0  0  0  0
  -31.3686   16.3249   32.1918 N   0  0  0  0  0  0  0  0  0  0  0  0
  -30.8637   16.5184   29.6648 H   0  0  0  0  0  0  0  0  0  0  0  0
  -29.2323   16.9840   29.8455 H   0  0  0  0  0  0  0  0  0  0  0  0
  -28.0811   16.5920   32.2079 H   0  0  0  0  0  0  0  0  0  0  0  0
  -33.2881   15.7184   33.9107 H   0  0  0  0  0  0  0  0  0  0  0  0
  -32.1527   15.4174   35.2373 H   0  0  0  0  0  0  0  0  0  0  0  0
  -32.2657   16.4387   31.7105 H   0  0  0  0  0  0  0  0  0  0  0  0
  1  2  1  0
  1  8  1  0
  1  9  1  0
  2  3  2  0
  2  7  1  0
  3  4  1  0
  3 10  1  0
  4  5  1  0
  5  6  2  0
  5  7  1  0
  6 11  1  0
  6 12  1  0
  7 13  1  0
M  CHG  1   6   1
M  END
> <intraLJ>
-0.730    

> <intraEL>
-5.242    

> <intraDihe>
2.059     

> <interLJ>
0.000     

> <interEJ>
0.000     

> <gridLJ>
-3.657    

> <gridEL>
0.000     

> <totalE>
-7.570    

> <LGFE>
-3.657  

> <LE>
-0.522  

> <SMILES>
Nc1csc(=[NH2+])[nH]1

> <atom.dprop.GFE>
-0.36 0.073 0.018 0.065 -1.6 -1.8 0 0 0 0 0 0 0

> <atom.prop.CLASS>
GEND GEHC GEHC PRPC MAMC MAMN NCLA NCLA NCLA NCLA NCLA NCLA NCLA

$$$$
