50_2
     RDKit          3D

 13 12  0  0  1  0  0  0  0  0999 V2000
  -22.6309    6.0505    2.9645 C   0  0  0  0  0  0  0  0  0  0  0  0
  -22.6790    4.5524    2.6564 C   0  0  0  0  0  0  0  0  0  0  0  0
  -24.0505    4.2347    2.3933 N   0  0  0  0  0  0  0  0  0  0  0  0
  -22.3864    3.8129    3.8946 C   0  0  0  0  0  0  0  0  0  0  0  0
  -22.1474    3.2115    4.8974 C   0  0  0  0  0  0  0  0  0  0  0  0
  -21.6040    6.3006    3.2401 H   0  0  0  0  0  0  0  0  0  0  0  0
  -23.2981    6.2937    3.7934 H   0  0  0  0  0  0  0  0  0  0  0  0
  -22.9059    6.6088    2.0684 H   0  0  0  0  0  0  0  0  0  0  0  0
  -22.0036    4.2775    1.8518 H   0  0  0  0  0  0  0  0  0  0  0  0
  -24.5585    4.4917    3.2252 H   0  0  0  0  0  0  0  0  0  0  0  0
  -24.0970    3.2346    2.2661 H   0  0  0  0  0  0  0  0  0  0  0  0
  -24.3585    4.7462    1.5829 H   0  0  0  0  0  0  0  0  0  0  0  0
  -21.9409    2.6924    5.7735 H   0  0  0  0  0  0  0  0  0  0  0  0
  1  2  1  0
  1  6  1  0
  1  7  1  0
  1  8  1  0
  2  3  1  0
  2  4  1  0
  2  9  1  0
  3 10  1  0
  3 11  1  0
  3 12  1  0
  4  5  3  0
  5 13  1  0
M  CHG  1   3   1
M  END
> <intraLJ>
0.427     

> <intraEL>
-0.040    

> <intraDihe>
0.051     

> <interLJ>
0.000     

> <interEJ>
0.000     

> <gridLJ>
-3.324    

> <gridEL>
0.000     

> <totalE>
-2.886    

> <LGFE>
-3.324  

> <LE>
-0.665  

> <SMILES>
C#CC(C)[NH3+]

> <atom.dprop.GFE>
-0.43 -0.53 -1.4 -0.51 -0.4 0 0 0 0 0 0 0 0

> <atom.prop.CLASS>
PRPC PRPC MAMN PRPC PRPC NCLA NCLA NCLA NCLA NCLA NCLA NCLA NCLA

$$$$
