42_2
     RDKit          3D

 18 17  0  0  1  0  0  0  0  0999 V2000
  -39.1143    5.7117   19.3706 C   0  0  0  0  0  0  0  0  0  0  0  0
  -40.4044    5.4715   20.0185 N   0  0  0  0  0  0  0  0  0  0  0  0
  -41.2871    6.4540   20.2399 C   0  0  0  0  0  0  0  0  0  0  0  0
  -41.0530    7.6185   19.9298 O   0  0  0  0  0  0  0  0  0  0  0  0
  -42.6493    6.1514   20.9296 C   0  0  0  0  0  0  0  0  0  0  0  0
  -43.0351    4.6774   20.7962 C   0  0  0  0  0  0  0  0  0  0  0  0
  -43.7420    6.9772   20.3554 N   0  0  0  0  0  0  0  0  0  0  0  0
  -38.5363    4.7871   19.3171 H   0  0  0  0  0  0  0  0  0  0  0  0
  -38.5418    6.4532   19.9329 H   0  0  0  0  0  0  0  0  0  0  0  0
  -39.2681    6.0910   18.3575 H   0  0  0  0  0  0  0  0  0  0  0  0
  -40.6131    4.5172   20.2770 H   0  0  0  0  0  0  0  0  0  0  0  0
  -42.5358    6.3815   21.9917 H   0  0  0  0  0  0  0  0  0  0  0  0
  -43.1265    4.4039   19.7434 H   0  0  0  0  0  0  0  0  0  0  0  0
  -43.9780    4.4820   21.3084 H   0  0  0  0  0  0  0  0  0  0  0  0
  -42.2623    4.0536   21.2480 H   0  0  0  0  0  0  0  0  0  0  0  0
  -43.7032    6.8568   19.3494 H   0  0  0  0  0  0  0  0  0  0  0  0
  -43.5373    7.9543   20.5149 H   0  0  0  0  0  0  0  0  0  0  0  0
  -44.6454    6.7197   20.7206 H   0  0  0  0  0  0  0  0  0  0  0  0
  1  2  1  0
  1  8  1  0
  1  9  1  0
  1 10  1  0
  2  3  1  0
  2 11  1  0
  3  4  2  0
  3  5  1  0
  5  6  1  0
  5  7  1  0
  5 12  1  0
  6 13  1  0
  6 14  1  0
  6 15  1  0
  7 16  1  0
  7 17  1  0
  7 18  1  0
M  CHG  1   7   1
M  END
> <intraLJ>
0.137     

> <intraEL>
3.082     

> <intraDihe>
0.295     

> <interLJ>
0.000     

> <interEJ>
0.000     

> <gridLJ>
-2.404    

> <gridEL>
0.000     

> <totalE>
1.110     

> <LGFE>
-2.404  

> <LE>
-0.343  

> <SMILES>
CNC(=O)C(C)[NH3+]

> <atom.dprop.GFE>
-0.57 -0.6 0 -0.76 -0.18 -0.1 -0.19 0 0 0 0 0 0 0 0 0 0 0

> <atom.prop.CLASS>
PRPC GEND NCLA GENA PRPC PRPC MAMN NCLA NCLA NCLA NCLA NCLA NCLA NCLA NCLA NCLA NCLA NCLA

$$$$
