57_1
     RDKit          3D

 15 15  0  0  0  0  0  0  0  0999 V2000
  -31.0753   14.0656   15.3366 O   0  0  0  0  0  0  0  0  0  0  0  0
  -29.9640   13.6891   15.9038 C   0  0  0  0  0  0  0  0  0  0  0  0
  -29.1086   13.3601   15.1281 O   0  0  0  0  0  0  0  0  0  0  0  0
  -29.8527   13.7012   17.4181 C   0  0  0  0  0  0  0  0  0  0  0  0
  -29.9313   15.1275   18.0334 C   0  0  0  0  0  0  0  0  0  0  0  0
  -28.8181   14.6595   19.0173 C   0  0  0  0  0  0  0  0  0  0  0  0
  -28.3879   13.6260   17.9335 C   0  0  0  0  0  0  0  0  0  0  0  0
  -30.8528   13.9574   14.4103 H   0  0  0  0  0  0  0  0  0  0  0  0
  -30.5202   12.9844   17.8814 H   0  0  0  0  0  0  0  0  0  0  0  0
  -30.8767   15.3513   18.5079 H   0  0  0  0  0  0  0  0  0  0  0  0
  -29.5892   15.9063   17.3640 H   0  0  0  0  0  0  0  0  0  0  0  0
  -29.2192   14.1884   19.9056 H   0  0  0  0  0  0  0  0  0  0  0  0
  -28.0721   15.4132   19.2294 H   0  0  0  0  0  0  0  0  0  0  0  0
  -27.6623   14.0332   17.2409 H   0  0  0  0  0  0  0  0  0  0  0  0
  -28.1091   12.6594   18.3314 H   0  0  0  0  0  0  0  0  0  0  0  0
  1  2  1  0
  1  8  1  0
  2  3  2  0
  2  4  1  0
  4  5  1  0
  4  7  1  0
  4  9  1  0
  5  6  1  0
  5 10  1  0
  5 11  1  0
  6  7  1  0
  6 12  1  0
  6 13  1  0
  7 14  1  0
  7 15  1  0
M  END
> <intraLJ>
-0.769    

> <intraEL>
-1.742    

> <intraDihe>
17.647    

> <interLJ>
0.000     

> <interEJ>
0.000     

> <gridLJ>
-2.580    

> <gridEL>
0.000     

> <totalE>
12.555    

> <LGFE>
-2.580  

> <LE>
-0.369  

> <SMILES>
O=C(O)C1CCC1

> <atom.dprop.GFE>
-0.51 0 -0.46 -0.32 -0.36 -0.45 -0.48 0 0 0 0 0 0 0 0

> <atom.prop.CLASS>
MEOO NCLA GENA PRPC PRPC PRPC PRPC NCLA NCLA NCLA NCLA NCLA NCLA NCLA NCLA

$$$$
