67
     RDKit          3D

 15 15  0  0  1  0  0  0  0  0999 V2000
    5.1061   16.0175    0.2775 O   0  0  0  0  0  0  0  0  0  0  0  0
    6.2169   16.8392    0.6414 C   0  0  0  0  0  0  0  0  0  0  0  0
    6.9599   16.3409    1.8781 C   0  0  0  0  0  0  0  0  0  0  0  0
    8.2272   16.9659    1.7938 O   0  0  0  0  0  0  0  0  0  0  0  0
    8.6149   16.9384    0.4254 C   0  0  0  0  0  0  0  0  0  0  0  0
    7.3354   16.8072   -0.4129 C   0  0  0  0  0  0  0  0  0  0  0  0
    7.3139   15.5681   -1.1016 O   0  0  0  0  0  0  0  0  0  0  0  0
    4.4052   16.1214    0.9296 H   0  0  0  0  0  0  0  0  0  0  0  0
    5.9027   17.8720    0.8011 H   0  0  0  0  0  0  0  0  0  0  0  0
    7.0744   15.2565    1.8290 H   0  0  0  0  0  0  0  0  0  0  0  0
    6.4429   16.6281    2.7945 H   0  0  0  0  0  0  0  0  0  0  0  0
    9.1485   17.8541    0.1678 H   0  0  0  0  0  0  0  0  0  0  0  0
    9.2606   16.0779    0.2415 H   0  0  0  0  0  0  0  0  0  0  0  0
    7.2327   17.6412   -1.1085 H   0  0  0  0  0  0  0  0  0  0  0  0
    6.4033   15.2501   -1.0029 H   0  0  0  0  0  0  0  0  0  0  0  0
  1  2  1  0
  1  8  1  0
  2  3  1  0
  2  6  1  0
  2  9  1  0
  3  4  1  0
  3 10  1  0
  3 11  1  0
  4  5  1  0
  5  6  1  0
  5 12  1  0
  5 13  1  0
  6  7  1  0
  6 14  1  0
  7 15  1  0
M  END
> <intraLJ>
4.089     

> <intraEL>
1.909     

> <intraDihe>
14.436    

> <interLJ>
0.000     

> <interEJ>
0.000     

> <gridLJ>
-2.522    

> <gridEL>
0.000     

> <totalE>
17.912    

> <LGFE>
-2.522  

> <LE>
-0.360  

> <SMILES>
OC1COCC1O

> <atom.dprop.GFE>
-0.59 -0.24 -0.21 -0.5 -0.24 -0.27 -0.49 0 0 0 0 0 0 0 0

> <atom.prop.CLASS>
MEOO PRPC PRPC GENA PRPC PRPC MEOO NCLA NCLA NCLA NCLA NCLA NCLA NCLA NCLA

$$$$
