58
     RDKit          3D

 12 12  0  0  0  0  0  0  0  0999 V2000
  -19.3433    1.0783   27.4564 O   0  0  0  0  0  0  0  0  0  0  0  0
  -19.9579    0.4688   28.3105 C   0  0  0  0  0  0  0  0  0  0  0  0
  -20.1081   -0.8590   28.3629 N   0  0  0  0  0  0  0  0  0  0  0  0
  -21.0407   -1.2603   29.4074 C   0  0  0  0  0  0  0  0  0  0  0  0
  -21.0820    0.0078   30.2823 C   0  0  0  0  0  0  0  0  0  0  0  0
  -20.5944    1.0159   29.3513 N   0  0  0  0  0  0  0  0  0  0  0  0
  -19.9433   -1.3783   27.4924 H   0  0  0  0  0  0  0  0  0  0  0  0
  -20.6785   -2.1194   29.9742 H   0  0  0  0  0  0  0  0  0  0  0  0
  -22.0258   -1.4528   28.9806 H   0  0  0  0  0  0  0  0  0  0  0  0
  -20.3937   -0.0951   31.1232 H   0  0  0  0  0  0  0  0  0  0  0  0
  -22.0968    0.2186   30.6229 H   0  0  0  0  0  0  0  0  0  0  0  0
  -20.3206    1.9701   29.6112 H   0  0  0  0  0  0  0  0  0  0  0  0
  1  2  2  0
  2  3  1  0
  2  6  1  0
  3  4  1  0
  3  7  1  0
  4  5  1  0
  4  8  1  0
  4  9  1  0
  5  6  1  0
  5 10  1  0
  5 11  1  0
  6 12  1  0
M  END
> <intraLJ>
-0.226    

> <intraEL>
-6.154    

> <intraDihe>
4.218     

> <interLJ>
0.000     

> <interEJ>
0.000     

> <gridLJ>
-2.637    

> <gridEL>
0.000     

> <totalE>
-4.799    

> <LGFE>
-2.637  

> <LE>
-0.439  

> <SMILES>
O=C1NCCN1

> <atom.dprop.GFE>
-0.64 -0.25 -0.59 -0.27 -0.33 -0.56 0 0 0 0 0 0

> <atom.prop.CLASS>
GENA GEHC GEND PRPC PRPC GEND NCLA NCLA NCLA NCLA NCLA NCLA

$$$$
