42_2
     RDKit          3D

 18 17  0  0  1  0  0  0  0  0999 V2000
  -21.8235    4.4188   -8.7085 C   0  0  0  0  0  0  0  0  0  0  0  0
  -22.5383    5.0283   -9.8307 N   0  0  0  0  0  0  0  0  0  0  0  0
  -22.0997    6.1374  -10.4399 C   0  0  0  0  0  0  0  0  0  0  0  0
  -21.0815    6.7183  -10.0755 O   0  0  0  0  0  0  0  0  0  0  0  0
  -22.8911    6.7490  -11.6326 C   0  0  0  0  0  0  0  0  0  0  0  0
  -23.9454    5.7789  -12.1680 C   0  0  0  0  0  0  0  0  0  0  0  0
  -21.9853    7.1219  -12.7488 N   0  0  0  0  0  0  0  0  0  0  0  0
  -22.3658    3.5460   -8.3397 H   0  0  0  0  0  0  0  0  0  0  0  0
  -21.7175    5.1382   -7.8930 H   0  0  0  0  0  0  0  0  0  0  0  0
  -20.8253    4.1066   -9.0246 H   0  0  0  0  0  0  0  0  0  0  0  0
  -23.3769    4.5599  -10.1444 H   0  0  0  0  0  0  0  0  0  0  0  0
  -23.4022    7.6409  -11.2622 H   0  0  0  0  0  0  0  0  0  0  0  0
  -23.4711    4.8604  -12.5187 H   0  0  0  0  0  0  0  0  0  0  0  0
  -24.5054    6.2365  -12.9844 H   0  0  0  0  0  0  0  0  0  0  0  0
  -24.6458    5.5222  -11.3718 H   0  0  0  0  0  0  0  0  0  0  0  0
  -21.4156    6.3075  -12.9491 H   0  0  0  0  0  0  0  0  0  0  0  0
  -21.3371    7.8280  -12.4275 H   0  0  0  0  0  0  0  0  0  0  0  0
  -22.4926    7.4238  -13.5657 H   0  0  0  0  0  0  0  0  0  0  0  0
  1  2  1  0
  1  8  1  0
  1  9  1  0
  1 10  1  0
  2  3  1  0
  2 11  1  0
  3  4  2  0
  3  5  1  0
  5  6  1  0
  5  7  1  0
  5 12  1  0
  6 13  1  0
  6 14  1  0
  6 15  1  0
  7 16  1  0
  7 17  1  0
  7 18  1  0
M  CHG  1   7   1
M  END
> <intraLJ>
0.059     

> <intraEL>
3.179     

> <intraDihe>
0.294     

> <interLJ>
0.000     

> <interEJ>
0.000     

> <gridLJ>
-3.335    

> <gridEL>
0.000     

> <totalE>
0.197     

> <LGFE>
-3.335  

> <LE>
-0.476  

> <SMILES>
CNC(=O)C(C)[NH3+]

> <atom.dprop.GFE>
-0.49 -0.54 0 -0.94 -0.25 0.022 -1.1 0 0 0 0 0 0 0 0 0 0 0

> <atom.prop.CLASS>
PRPC GEND NCLA GENA PRPC PRPC MAMN NCLA NCLA NCLA NCLA NCLA NCLA NCLA NCLA NCLA NCLA NCLA

$$$$
