79
     RDKit          3D

 13 12  0  0  0  0  0  0  0  0999 V2000
  -26.0515  -17.3541    7.1185 C   0  0  0  0  0  0  0  0  0  0  0  0
  -25.1869  -17.7464    8.3139 C   0  0  0  0  0  0  0  0  0  0  0  0
  -25.2391  -16.6015    9.1912 O   0  0  0  0  0  0  0  0  0  0  0  0
  -26.1219  -16.4074   10.1857 C   0  0  0  0  0  0  0  0  0  0  0  0
  -26.9844  -17.2173   10.4473 O   0  0  0  0  0  0  0  0  0  0  0  0
  -26.0222  -15.2743   10.8950 N   0  0  0  0  0  0  0  0  0  0  0  0
  -26.0707  -18.1680    6.3938 H   0  0  0  0  0  0  0  0  0  0  0  0
  -25.6407  -16.4596    6.6474 H   0  0  0  0  0  0  0  0  0  0  0  0
  -27.0676  -17.1444    7.4542 H   0  0  0  0  0  0  0  0  0  0  0  0
  -24.1622  -17.9341    7.9889 H   0  0  0  0  0  0  0  0  0  0  0  0
  -25.6072  -18.6255    8.8063 H   0  0  0  0  0  0  0  0  0  0  0  0
  -26.6942  -15.1343   11.6563 H   0  0  0  0  0  0  0  0  0  0  0  0
  -25.2953  -14.5876   10.6868 H   0  0  0  0  0  0  0  0  0  0  0  0
  1  2  1  0
  1  7  1  0
  1  8  1  0
  1  9  1  0
  2  3  1  0
  2 10  1  0
  2 11  1  0
  3  4  1  0
  4  5  2  0
  4  6  1  0
  6 12  1  0
  6 13  1  0
M  END
> <intraLJ>
0.003     

> <intraEL>
-7.833    

> <intraDihe>
1.198     

> <interLJ>
0.000     

> <interEJ>
0.000     

> <gridLJ>
-3.250    

> <gridEL>
0.000     

> <totalE>
-9.882    

> <LGFE>
-3.250  

> <LE>
-0.542  

> <SMILES>
CCOC(N)=O

> <atom.dprop.GFE>
-0.44 -0.39 -0.39 0 -0.88 -1.1 0 0 0 0 0 0 0

> <atom.prop.CLASS>
PRPC PRPC GENA NCLA GENA GEND NCLA NCLA NCLA NCLA NCLA NCLA NCLA

$$$$
