15_2
     RDKit          3D

 14 14  0  0  0  0  0  0  0  0999 V2000
  -31.0129   -3.5695    8.5928 N   0  0  0  0  0  0  0  0  0  0  0  0
  -32.1386   -3.5054    9.3153 C   0  0  0  0  0  0  0  0  0  0  0  0
  -33.3348   -4.1697    8.9754 C   0  0  0  0  0  0  0  0  0  0  0  0
  -34.4327   -4.0357    9.7904 C   0  0  0  0  0  0  0  0  0  0  0  0
  -34.3377   -3.2372   10.9477 C   0  0  0  0  0  0  0  0  0  0  0  0
  -33.1543   -2.6014   11.2534 C   0  0  0  0  0  0  0  0  0  0  0  0
  -32.0761   -2.7528   10.4227 N   0  0  0  0  0  0  0  0  0  0  0  0
  -30.1338   -3.0848    8.8367 H   0  0  0  0  0  0  0  0  0  0  0  0
  -30.9986   -4.1363    7.7240 H   0  0  0  0  0  0  0  0  0  0  0  0
  -33.3700   -4.7619    8.0964 H   0  0  0  0  0  0  0  0  0  0  0  0
  -35.3475   -4.5261    9.5559 H   0  0  0  0  0  0  0  0  0  0  0  0
  -35.1839   -3.1313   11.5798 H   0  0  0  0  0  0  0  0  0  0  0  0
  -32.9976   -1.9828   12.1033 H   0  0  0  0  0  0  0  0  0  0  0  0
  -31.1831   -2.2853   10.6341 H   0  0  0  0  0  0  0  0  0  0  0  0
  1  2  1  0
  1  8  1  0
  1  9  1  0
  2  3  2  0
  2  7  1  0
  3  4  1  0
  3 10  1  0
  4  5  2  0
  4 11  1  0
  5  6  1  0
  5 12  1  0
  6  7  2  0
  6 13  1  0
  7 14  1  0
M  CHG  1   7   1
M  END
> <intraLJ>
8.433     

> <intraEL>
1.228     

> <intraDihe>
0.000     

> <interLJ>
0.000     

> <interEJ>
0.000     

> <gridLJ>
-3.568    

> <gridEL>
0.000     

> <totalE>
6.092     

> <LGFE>
-3.568  

> <LE>
-0.510  

> <SMILES>
Nc1cccc[nH+]1

> <atom.dprop.GFE>
-0.4 0.18 0.081 -0.021 -0.017 0.092 -3.5 0 0 0 0 0 0 0

> <atom.prop.CLASS>
GEND BENC BENC BENC BENC BENC MAMN NCLA NCLA NCLA NCLA NCLA NCLA NCLA

$$$$
