67
     RDKit          3D

 15 15  0  0  1  0  0  0  0  0999 V2000
  -26.4517    4.3560   19.5181 O   0  0  0  0  0  0  0  0  0  0  0  0
  -25.8222    3.8101   20.6788 C   0  0  0  0  0  0  0  0  0  0  0  0
  -24.4666    3.1712   20.3892 C   0  0  0  0  0  0  0  0  0  0  0  0
  -23.8288    3.1289   21.6522 O   0  0  0  0  0  0  0  0  0  0  0  0
  -24.1380    4.3484   22.3161 C   0  0  0  0  0  0  0  0  0  0  0  0
  -25.4306    4.8959   21.6944 C   0  0  0  0  0  0  0  0  0  0  0  0
  -25.1826    6.1190   21.0214 O   0  0  0  0  0  0  0  0  0  0  0  0
  -26.7398    3.6384   18.9442 H   0  0  0  0  0  0  0  0  0  0  0  0
  -26.4690    3.0785   21.1660 H   0  0  0  0  0  0  0  0  0  0  0  0
  -23.8981    3.8038   19.7050 H   0  0  0  0  0  0  0  0  0  0  0  0
  -24.5804    2.1687   19.9752 H   0  0  0  0  0  0  0  0  0  0  0  0
  -24.2725    4.1711   23.3838 H   0  0  0  0  0  0  0  0  0  0  0  0
  -23.3294    5.0660   22.1661 H   0  0  0  0  0  0  0  0  0  0  0  0
  -26.2099    5.0171   22.4480 H   0  0  0  0  0  0  0  0  0  0  0  0
  -25.6845    6.0485   20.1949 H   0  0  0  0  0  0  0  0  0  0  0  0
  1  2  1  0
  1  8  1  0
  2  3  1  0
  2  6  1  0
  2  9  1  0
  3  4  1  0
  3 10  1  0
  3 11  1  0
  4  5  1  0
  5  6  1  0
  5 12  1  0
  5 13  1  0
  6  7  1  0
  6 14  1  0
  7 15  1  0
M  END
> <intraLJ>
4.089     

> <intraEL>
1.909     

> <intraDihe>
14.436    

> <interLJ>
0.000     

> <interEJ>
0.000     

> <gridLJ>
-5.044    

> <gridEL>
0.000     

> <totalE>
15.390    

> <LGFE>
-5.044  

> <LE>
-0.721  

> <SMILES>
OC1COCC1O

> <atom.dprop.GFE>
-1.2 -0.3 -0.17 -1 -0.14 -0.29 -1.9 0 0 0 0 0 0 0 0

> <atom.prop.CLASS>
MEOO PRPC PRPC GENA PRPC PRPC MEOO NCLA NCLA NCLA NCLA NCLA NCLA NCLA NCLA

$$$$
