76_1
     RDKit          3D

 22 21  0  0  0  0  0  0  0  0999 V2000
  -21.9484  -10.2869   28.1669 C   0  0  0  0  0  0  0  0  0  0  0  0
  -21.6643   -8.7864   28.0230 C   0  0  0  0  0  0  0  0  0  0  0  0
  -22.9967   -8.0473   27.8238 C   0  0  0  0  0  0  0  0  0  0  0  0
  -20.6848   -8.5646   26.8548 C   0  0  0  0  0  0  0  0  0  0  0  0
  -20.2074   -7.1080   26.7271 C   0  0  0  0  0  0  0  0  0  0  0  0
  -19.2077   -6.9602   25.5819 C   0  0  0  0  0  0  0  0  0  0  0  0
  -18.7596   -5.5590   25.4921 N   0  0  0  0  0  0  0  0  0  0  0  0
  -22.6141  -10.4601   29.0125 H   0  0  0  0  0  0  0  0  0  0  0  0
  -21.0166  -10.8271   28.3450 H   0  0  0  0  0  0  0  0  0  0  0  0
  -22.4161  -10.6727   27.2601 H   0  0  0  0  0  0  0  0  0  0  0  0
  -21.1999   -8.4320   28.9467 H   0  0  0  0  0  0  0  0  0  0  0  0
  -23.4514   -8.3395   26.8761 H   0  0  0  0  0  0  0  0  0  0  0  0
  -22.8374   -6.9696   27.8299 H   0  0  0  0  0  0  0  0  0  0  0  0
  -23.6815   -8.2914   28.6378 H   0  0  0  0  0  0  0  0  0  0  0  0
  -21.1620   -8.8703   25.9211 H   0  0  0  0  0  0  0  0  0  0  0  0
  -19.8112   -9.1993   27.0120 H   0  0  0  0  0  0  0  0  0  0  0  0
  -19.7237   -6.7986   27.6551 H   0  0  0  0  0  0  0  0  0  0  0  0
  -21.0557   -6.4526   26.5358 H   0  0  0  0  0  0  0  0  0  0  0  0
  -19.6828   -7.2622   24.6454 H   0  0  0  0  0  0  0  0  0  0  0  0
  -18.3485   -7.6087   25.7664 H   0  0  0  0  0  0  0  0  0  0  0  0
  -19.5509   -4.9486   25.3359 H   0  0  0  0  0  0  0  0  0  0  0  0
  -18.0938   -5.4478   24.7398 H   0  0  0  0  0  0  0  0  0  0  0  0
  1  2  1  0
  1  8  1  0
  1  9  1  0
  1 10  1  0
  2  3  1  0
  2  4  1  0
  2 11  1  0
  3 12  1  0
  3 13  1  0
  3 14  1  0
  4  5  1  0
  4 15  1  0
  4 16  1  0
  5  6  1  0
  5 17  1  0
  5 18  1  0
  6  7  1  0
  6 19  1  0
  6 20  1  0
  7 21  1  0
  7 22  1  0
M  END
> <intraLJ>
-0.171    

> <intraEL>
-1.008    

> <intraDihe>
0.143     

> <interLJ>
0.000     

> <interEJ>
0.000     

> <gridLJ>
-3.131    

> <gridEL>
0.000     

> <totalE>
-4.167    

> <LGFE>
-3.131  

> <LE>
-0.447  

> <SMILES>
CC(C)CCCN

> <atom.dprop.GFE>
-0.29 -0.42 -0.43 -0.42 -0.4 -0.33 -0.84 0 0 0 0 0 0 0 0 0 0 0 0 0 0 0

> <atom.prop.CLASS>
PRPC PRPC PRPC PRPC PRPC PRPC GEND NCLA NCLA NCLA NCLA NCLA NCLA NCLA NCLA NCLA NCLA NCLA NCLA NCLA NCLA NCLA

$$$$
