2_1
     RDKit          3D

 15 15  0  0  0  0  0  0  0  0999 V2000
   23.0699    7.6839   -9.5636 C   0  0  0  0  0  0  0  0  0  0  0  0
   24.4129    7.5517   -8.8220 C   0  0  0  0  0  0  0  0  0  0  0  0
   24.3722    6.4870   -7.8704 O   0  0  0  0  0  0  0  0  0  0  0  0
   23.3321    6.6788   -6.9100 C   0  0  0  0  0  0  0  0  0  0  0  0
   21.9570    6.7857   -7.5960 C   0  0  0  0  0  0  0  0  0  0  0  0
   21.9390    7.8673   -8.6157 N   0  0  0  0  0  0  0  0  0  0  0  0
   22.9166    6.7746  -10.1485 H   0  0  0  0  0  0  0  0  0  0  0  0
   23.1209    8.5322  -10.2473 H   0  0  0  0  0  0  0  0  0  0  0  0
   24.6291    8.4914   -8.3123 H   0  0  0  0  0  0  0  0  0  0  0  0
   25.2052    7.3567   -9.5452 H   0  0  0  0  0  0  0  0  0  0  0  0
   23.5166    7.5936   -6.3455 H   0  0  0  0  0  0  0  0  0  0  0  0
   23.3221    5.8372   -6.2171 H   0  0  0  0  0  0  0  0  0  0  0  0
   21.1945    6.9772   -6.8400 H   0  0  0  0  0  0  0  0  0  0  0  0
   21.7409    5.8270   -8.0721 H   0  0  0  0  0  0  0  0  0  0  0  0
   21.0530    7.8873   -9.1073 H   0  0  0  0  0  0  0  0  0  0  0  0
  1  2  1  0
  1  6  1  0
  1  7  1  0
  1  8  1  0
  2  3  1  0
  2  9  1  0
  2 10  1  0
  3  4  1  0
  4  5  1  0
  4 11  1  0
  4 12  1  0
  5  6  1  0
  5 13  1  0
  5 14  1  0
  6 15  1  0
M  END
> <intraLJ>
0.516     

> <intraEL>
2.915     

> <intraDihe>
4.772     

> <interLJ>
0.000     

> <interEJ>
0.000     

> <gridLJ>
-3.812    

> <gridEL>
0.000     

> <totalE>
4.390     

> <LGFE>
-3.812  

> <LE>
-0.635  

> <SMILES>
C1COCCN1

> <atom.dprop.GFE>
-0.31 -0.41 -1.2 -0.3 -0.31 -1.3 0 0 0 0 0 0 0 0 0

> <atom.prop.CLASS>
PRPC PRPC GENA PRPC PRPC GEND NCLA NCLA NCLA NCLA NCLA NCLA NCLA NCLA NCLA

$$$$
