57_1
     RDKit          3D

 15 15  0  0  0  0  0  0  0  0999 V2000
  -19.0813   -5.2558   24.5423 O   0  0  0  0  0  0  0  0  0  0  0  0
  -20.0364   -5.9275   25.1212 C   0  0  0  0  0  0  0  0  0  0  0  0
  -21.0354   -5.2887   25.3101 O   0  0  0  0  0  0  0  0  0  0  0  0
  -19.8149   -7.3848   25.4854 C   0  0  0  0  0  0  0  0  0  0  0  0
  -20.8713   -7.9415   26.4818 C   0  0  0  0  0  0  0  0  0  0  0  0
  -19.6904   -8.6955   27.1626 C   0  0  0  0  0  0  0  0  0  0  0  0
  -18.7475   -7.5918   26.5965 C   0  0  0  0  0  0  0  0  0  0  0  0
  -19.4988   -4.3992   24.4373 H   0  0  0  0  0  0  0  0  0  0  0  0
  -19.6655   -8.0054   24.6098 H   0  0  0  0  0  0  0  0  0  0  0  0
  -21.6075   -8.5898   26.0271 H   0  0  0  0  0  0  0  0  0  0  0  0
  -21.3014   -7.1835   27.1238 H   0  0  0  0  0  0  0  0  0  0  0  0
  -19.5069   -9.6664   26.7205 H   0  0  0  0  0  0  0  0  0  0  0  0
  -19.7459   -8.7177   28.2424 H   0  0  0  0  0  0  0  0  0  0  0  0
  -18.6506   -6.7483   27.2683 H   0  0  0  0  0  0  0  0  0  0  0  0
  -17.7992   -7.9650   26.2335 H   0  0  0  0  0  0  0  0  0  0  0  0
  1  2  1  0
  1  8  1  0
  2  3  2  0
  2  4  1  0
  4  5  1  0
  4  7  1  0
  4  9  1  0
  5  6  1  0
  5 10  1  0
  5 11  1  0
  6  7  1  0
  6 12  1  0
  6 13  1  0
  7 14  1  0
  7 15  1  0
M  END
> <intraLJ>
-0.761    

> <intraEL>
-1.745    

> <intraDihe>
17.645    

> <interLJ>
0.000     

> <interEJ>
0.000     

> <gridLJ>
-3.991    

> <gridEL>
0.000     

> <totalE>
11.148    

> <LGFE>
-3.991  

> <LE>
-0.570  

> <SMILES>
O=C(O)C1CCC1

> <atom.dprop.GFE>
-1.1 0 -1.5 -0.33 -0.42 -0.36 -0.29 0 0 0 0 0 0 0 0

> <atom.prop.CLASS>
MEOO NCLA GENA PRPC PRPC PRPC PRPC NCLA NCLA NCLA NCLA NCLA NCLA NCLA NCLA

$$$$
