32
     RDKit          3D

 17 16  0  0  0  0  0  0  0  0999 V2000
  -26.7736    4.1441   22.1627 C   0  0  0  0  0  0  0  0  0  0  0  0
  -25.3186    4.5682   22.3475 C   0  0  0  0  0  0  0  0  0  0  0  0
  -25.1326    6.0423   21.9924 C   0  0  0  0  0  0  0  0  0  0  0  0
  -24.5489    3.8021   21.3871 N   0  0  0  0  0  0  0  0  0  0  0  0
  -23.4127    3.1318   21.6555 C   0  0  0  0  0  0  0  0  0  0  0  0
  -23.0754    2.8934   22.7966 O   0  0  0  0  0  0  0  0  0  0  0  0
  -22.6590    2.7503   20.6231 N   0  0  0  0  0  0  0  0  0  0  0  0
  -27.4090    4.7060   22.8466 H   0  0  0  0  0  0  0  0  0  0  0  0
  -26.8732    3.0801   22.3813 H   0  0  0  0  0  0  0  0  0  0  0  0
  -27.0981    4.3309   21.1389 H   0  0  0  0  0  0  0  0  0  0  0  0
  -25.0242    4.3979   23.3843 H   0  0  0  0  0  0  0  0  0  0  0  0
  -25.4387    6.2273   20.9627 H   0  0  0  0  0  0  0  0  0  0  0  0
  -24.0831    6.3150   22.1055 H   0  0  0  0  0  0  0  0  0  0  0  0
  -25.7311    6.6597   22.6612 H   0  0  0  0  0  0  0  0  0  0  0  0
  -24.5967    4.1167   20.4118 H   0  0  0  0  0  0  0  0  0  0  0  0
  -21.7165    2.4305   20.8718 H   0  0  0  0  0  0  0  0  0  0  0  0
  -22.8083    3.2304   19.7347 H   0  0  0  0  0  0  0  0  0  0  0  0
  1  2  1  0
  1  8  1  0
  1  9  1  0
  1 10  1  0
  2  3  1  0
  2  4  1  0
  2 11  1  0
  3 12  1  0
  3 13  1  0
  3 14  1  0
  4  5  1  0
  4 15  1  0
  5  6  2  0
  5  7  1  0
  7 16  1  0
  7 17  1  0
M  END
> <intraLJ>
-0.664    

> <intraEL>
-9.461    

> <intraDihe>
5.503     

> <interLJ>
0.000     

> <interEJ>
0.000     

> <gridLJ>
-4.242    

> <gridEL>
0.000     

> <totalE>
-8.863    

> <LGFE>
-4.242  

> <LE>
-0.606  

> <SMILES>
CC(C)NC(N)=O

> <atom.dprop.GFE>
-0.19 -0.29 -0.23 -0.63 0 -1.9 -1 0 0 0 0 0 0 0 0 0 0

> <atom.prop.CLASS>
PRPC PRPC PRPC GEND NCLA GENA GEND NCLA NCLA NCLA NCLA NCLA NCLA NCLA NCLA NCLA NCLA

$$$$
