49_1
     RDKit          3D

 18 18  0  0  1  0  0  0  0  0999 V2000
    3.3953    1.1313  -38.4874 O   0  0  0  0  0  0  0  0  0  0  0  0
    2.4784    1.8063  -39.3408 C   0  0  0  0  0  0  0  0  0  0  0  0
    2.9970    3.2072  -39.6990 C   0  0  0  0  0  0  0  0  0  0  0  0
    2.0714    3.9978  -40.6219 C   0  0  0  0  0  0  0  0  0  0  0  0
    3.0184    4.9750  -41.3427 C   0  0  0  0  0  0  0  0  0  0  0  0
    4.4192    4.5480  -40.9040 C   0  0  0  0  0  0  0  0  0  0  0  0
    4.2726    3.1658  -40.4267 N   0  0  0  0  0  0  0  0  0  0  0  0
    3.1911    0.1925  -38.4821 H   0  0  0  0  0  0  0  0  0  0  0  0
    2.3394    1.2421  -40.2636 H   0  0  0  0  0  0  0  0  0  0  0  0
    1.5184    1.9022  -38.8323 H   0  0  0  0  0  0  0  0  0  0  0  0
    3.1251    3.7751  -38.7748 H   0  0  0  0  0  0  0  0  0  0  0  0
    1.6200    3.3278  -41.3546 H   0  0  0  0  0  0  0  0  0  0  0  0
    1.3029    4.5220  -40.0528 H   0  0  0  0  0  0  0  0  0  0  0  0
    2.8260    6.0065  -41.0484 H   0  0  0  0  0  0  0  0  0  0  0  0
    2.9158    4.8600  -42.4223 H   0  0  0  0  0  0  0  0  0  0  0  0
    4.7389    5.1884  -40.0787 H   0  0  0  0  0  0  0  0  0  0  0  0
    5.1387    4.6179  -41.7222 H   0  0  0  0  0  0  0  0  0  0  0  0
    5.0277    2.8578  -39.8247 H   0  0  0  0  0  0  0  0  0  0  0  0
  1  2  1  0
  1  8  1  0
  2  3  1  0
  2  9  1  0
  2 10  1  0
  3  4  1  0
  3  7  1  0
  3 11  1  0
  4  5  1  0
  4 12  1  0
  4 13  1  0
  5  6  1  0
  5 14  1  0
  5 15  1  0
  6  7  1  0
  6 16  1  0
  6 17  1  0
  7 18  1  0
M  END
> <intraLJ>
0.327     

> <intraEL>
1.556     

> <intraDihe>
11.882    

> <interLJ>
0.000     

> <interEJ>
0.000     

> <gridLJ>
-3.645    

> <gridEL>
0.000     

> <totalE>
10.120    

> <LGFE>
-3.645  

> <LE>
-0.521  

> <SMILES>
OCC1CCCN1

> <atom.dprop.GFE>
-0.96 -0.42 -0.43 -0.38 -0.32 -0.22 -0.92 0 0 0 0 0 0 0 0 0 0 0

> <atom.prop.CLASS>
MEOO PRPC PRPC PRPC PRPC PRPC GEND NCLA NCLA NCLA NCLA NCLA NCLA NCLA NCLA NCLA NCLA NCLA

$$$$
