73
     RDKit          3D

 13 13  0  0  0  0  0  0  0  0999 V2000
   14.9202   13.1783  -33.6712 O   0  0  0  0  0  0  0  0  0  0  0  0
   15.9790   13.7003  -33.9812 C   0  0  0  0  0  0  0  0  0  0  0  0
   16.1237   15.0549  -34.6355 C   0  0  0  0  0  0  0  0  0  0  0  0
   17.6102   15.3915  -34.4132 C   0  0  0  0  0  0  0  0  0  0  0  0
   18.2462   14.0008  -34.2766 C   0  0  0  0  0  0  0  0  0  0  0  0
   17.1703   13.1907  -33.7450 N   0  0  0  0  0  0  0  0  0  0  0  0
   15.4719   15.7851  -34.1590 H   0  0  0  0  0  0  0  0  0  0  0  0
   15.9052   14.9581  -35.6979 H   0  0  0  0  0  0  0  0  0  0  0  0
   17.7261   15.9359  -33.4742 H   0  0  0  0  0  0  0  0  0  0  0  0
   18.0346   15.9553  -35.2457 H   0  0  0  0  0  0  0  0  0  0  0  0
   19.1041   14.0296  -33.6008 H   0  0  0  0  0  0  0  0  0  0  0  0
   18.5467   13.6244  -35.2579 H   0  0  0  0  0  0  0  0  0  0  0  0
   17.2843   12.2900  -33.3089 H   0  0  0  0  0  0  0  0  0  0  0  0
  1  2  2  0
  2  3  1  0
  2  6  1  0
  3  4  1  0
  3  7  1  0
  3  8  1  0
  4  5  1  0
  4  9  1  0
  4 10  1  0
  5  6  1  0
  5 11  1  0
  5 12  1  0
  6 13  1  0
M  END
> <intraLJ>
-0.403    

> <intraEL>
-2.564    

> <intraDihe>
6.839     

> <interLJ>
0.000     

> <interEJ>
0.000     

> <gridLJ>
-2.682    

> <gridEL>
0.000     

> <totalE>
1.190     

> <LGFE>
-2.682  

> <LE>
-0.447  

> <SMILES>
O=C1CCCN1

> <atom.dprop.GFE>
-0.67 0.0063 -0.45 -0.37 -0.31 -0.89 0 0 0 0 0 0 0

> <atom.prop.CLASS>
GENA GEHC PRPC PRPC PRPC GEND NCLA NCLA NCLA NCLA NCLA NCLA NCLA

$$$$
