35_1
     RDKit          3D

 10 10  0  0  0  0  0  0  0  0999 V2000
  -15.4597   13.0146   -1.3563 N   0  0  0  0  0  0  0  0  0  0  0  0
  -15.0774   12.9953   -2.6584 C   0  0  0  0  0  0  0  0  0  0  0  0
  -14.1423   13.8271   -3.1306 N   0  0  0  0  0  0  0  0  0  0  0  0
  -14.0752   13.4872   -4.3691 C   0  0  0  0  0  0  0  0  0  0  0  0
  -14.9339   12.4894   -4.6016 N   0  0  0  0  0  0  0  0  0  0  0  0
  -15.5897   12.1534   -3.4795 N   0  0  0  0  0  0  0  0  0  0  0  0
  -15.7960   12.0778   -1.1180 H   0  0  0  0  0  0  0  0  0  0  0  0
  -14.6643   13.3326   -0.7951 H   0  0  0  0  0  0  0  0  0  0  0  0
  -13.4635   13.8858   -5.1376 H   0  0  0  0  0  0  0  0  0  0  0  0
  -15.0772   12.0330   -5.5192 H   0  0  0  0  0  0  0  0  0  0  0  0
  1  2  1  0
  1  7  1  0
  1  8  1  0
  2  3  1  0
  2  6  2  0
  3  4  2  0
  4  5  1  0
  4  9  1  0
  5  6  1  0
  5 10  1  0
M  END
> <intraLJ>
0.124     

> <intraEL>
-9.860    

> <intraDihe>
2.848     

> <interLJ>
0.000     

> <interEJ>
0.000     

> <gridLJ>
-2.113    

> <gridEL>
0.000     

> <totalE>
-9.001    

> <LGFE>
-2.113  

> <LE>
-0.352  

> <SMILES>
Nc1nc[nH]n1

> <atom.dprop.GFE>
-0.25 -0.17 -0.51 -0.21 -0.53 -0.46 0 0 0 0

> <atom.prop.CLASS>
GEND GEHC GENA GEHC GEND GENA NCLA NCLA NCLA NCLA

$$$$
