10_1
     RDKit          3D

  8  7  0  0  0  0  0  0  0  0999 V2000
   20.1422    7.0785   -5.9099 O   0  0  0  0  0  0  0  0  0  0  0  0
   20.4507    6.2153   -7.0355 P   0  0  0  0  0  0  0  0  0  0  0  0
   19.2191    5.5131   -7.5578 O   0  0  0  0  0  0  0  0  0  0  0  0
   21.0422    6.9883   -8.1909 O   0  0  0  0  0  0  0  0  0  0  0  0
   21.4473    5.1431   -6.6636 O   0  0  0  0  0  0  0  0  0  0  0  0
   18.4844    5.8058   -7.0098 H   0  0  0  0  0  0  0  0  0  0  0  0
   21.0836    7.9095   -7.9111 H   0  0  0  0  0  0  0  0  0  0  0  0
   21.6614    5.2781   -5.7346 H   0  0  0  0  0  0  0  0  0  0  0  0
  1  2  2  0
  2  3  1  0
  2  4  1  0
  2  5  1  0
  3  6  1  0
  4  7  1  0
  5  8  1  0
M  END
> <intraLJ>
-0.194    

> <intraEL>
-23.203   

> <intraDihe>
5.381     

> <interLJ>
0.000     

> <interEJ>
0.000     

> <gridLJ>
-2.409    

> <gridEL>
0.000     

> <totalE>
-20.425   

> <LGFE>
-2.409  

> <LE>
-0.482  

> <SMILES>
O=P(O)(O)O

> <atom.dprop.GFE>
-0.83 0 -0.47 -0.6 -0.51 0 0 0

> <atom.prop.CLASS>
GENA NCLA MEOO MEOO MEOO NCLA NCLA NCLA

$$$$
