65
     RDKit          3D

 12 12  0  0  0  0  0  0  0  0999 V2000
  -19.6985   -8.7528   25.9149 N   0  0  0  0  0  0  0  0  0  0  0  0
  -20.7146   -8.4686   26.7296 C   0  0  0  0  0  0  0  0  0  0  0  0
  -21.2590   -9.4861   27.3824 N   0  0  0  0  0  0  0  0  0  0  0  0
  -22.2661   -9.2117   28.1938 C   0  0  0  0  0  0  0  0  0  0  0  0
  -22.7082   -7.9054   28.3422 C   0  0  0  0  0  0  0  0  0  0  0  0
  -22.0725   -6.9014   27.6247 C   0  0  0  0  0  0  0  0  0  0  0  0
  -21.0676   -7.1934   26.8178 N   0  0  0  0  0  0  0  0  0  0  0  0
  -19.1082   -7.9407   25.7186 H   0  0  0  0  0  0  0  0  0  0  0  0
  -19.2460   -9.6427   26.1409 H   0  0  0  0  0  0  0  0  0  0  0  0
  -22.7245  -10.0070   28.7261 H   0  0  0  0  0  0  0  0  0  0  0  0
  -23.5137   -7.6777   28.9891 H   0  0  0  0  0  0  0  0  0  0  0  0
  -22.3803   -5.8899   27.7118 H   0  0  0  0  0  0  0  0  0  0  0  0
  1  2  1  0
  1  8  1  0
  1  9  1  0
  2  3  2  0
  2  7  1  0
  3  4  1  0
  4  5  2  0
  4 10  1  0
  5  6  1  0
  5 11  1  0
  6  7  2  0
  6 12  1  0
M  END
> <intraLJ>
20.123    

> <intraEL>
-18.333   

> <intraDihe>
1.049     

> <interLJ>
0.000     

> <interEJ>
0.000     

> <gridLJ>
-2.611    

> <gridEL>
0.000     

> <totalE>
0.228     

> <LGFE>
-2.611  

> <LE>
-0.373  

> <SMILES>
Nc1ncccn1

> <atom.dprop.GFE>
-0.44 -0.17 -0.66 -0.2 -0.21 -0.17 -0.76 0 0 0 0 0

> <atom.prop.CLASS>
GEND GEHC GENA BENC BENC BENC GENA NCLA NCLA NCLA NCLA NCLA

$$$$
