1
     RDKit          3D

  9  9  0  0  0  0  0  0  0  0999 V2000
  -16.1113   -9.6763   -9.7165 Br  0  0  0  0  0  0  0  0  0  0  0  0
  -16.1399   -8.3910   -8.3432 C   0  0  0  0  0  0  0  0  0  0  0  0
  -16.1327   -7.0072   -8.4896 C   0  0  0  0  0  0  0  0  0  0  0  0
  -16.1580   -6.4097   -7.3261 N   0  0  0  0  0  0  0  0  0  0  0  0
  -16.1829   -7.4263   -6.4216 N   0  0  0  0  0  0  0  0  0  0  0  0
  -16.1726   -8.6396   -7.0168 C   0  0  0  0  0  0  0  0  0  0  0  0
  -16.1081   -6.4873   -9.4131 H   0  0  0  0  0  0  0  0  0  0  0  0
  -16.2067   -7.2622   -5.3964 H   0  0  0  0  0  0  0  0  0  0  0  0
  -16.1889   -9.5468   -6.4716 H   0  0  0  0  0  0  0  0  0  0  0  0
  1  2  1  0
  2  3  1  0
  2  6  2  0
  3  4  2  0
  3  7  1  0
  4  5  1  0
  5  6  1  0
  5  8  1  0
  6  9  1  0
M  END
> <intraLJ>
-0.882    

> <intraEL>
0.676     

> <intraDihe>
0.000     

> <interLJ>
0.000     

> <interEJ>
0.000     

> <gridLJ>
-3.648    

> <gridEL>
0.000     

> <totalE>
-3.854    

> <LGFE>
-3.648  

> <LE>
-0.608  

> <SMILES>
Brc1cn[nH]c1

> <atom.dprop.GFE>
-0.14 -0.19 -0.24 -1.5 -1.4 -0.22 0 0 0

> <atom.prop.CLASS>
GENA GEHC GEHC GENA GEND GEHC NCLA NCLA NCLA

$$$$
