80
     RDKit          3D

 16 16  0  0  0  0  0  0  0  0999 V2000
    1.6210    3.3645  -35.5433 N   0  0  0  0  0  0  0  0  0  0  0  0
    1.0169    3.2110  -36.7318 C   0  0  0  0  0  0  0  0  0  0  0  0
    0.1854    4.0418  -37.0182 O   0  0  0  0  0  0  0  0  0  0  0  0
    1.4115    2.0362  -37.6109 C   0  0  0  0  0  0  0  0  0  0  0  0
    2.8820    2.1010  -38.1098 C   0  0  0  0  0  0  0  0  0  0  0  0
    2.3424    1.5726  -39.4723 C   0  0  0  0  0  0  0  0  0  0  0  0
    0.9640    2.1892  -39.0915 C   0  0  0  0  0  0  0  0  0  0  0  0
    1.3400    4.1510  -34.9824 H   0  0  0  0  0  0  0  0  0  0  0  0
    2.3228    2.7185  -35.2323 H   0  0  0  0  0  0  0  0  0  0  0  0
    1.1402    1.0857  -37.1669 H   0  0  0  0  0  0  0  0  0  0  0  0
    3.5498    1.4173  -37.6042 H   0  0  0  0  0  0  0  0  0  0  0  0
    3.2709    3.1083  -38.1844 H   0  0  0  0  0  0  0  0  0  0  0  0
    2.3157    0.4908  -39.5177 H   0  0  0  0  0  0  0  0  0  0  0  0
    2.8058    2.0267  -40.3370 H   0  0  0  0  0  0  0  0  0  0  0  0
    0.8713    3.2182  -39.4136 H   0  0  0  0  0  0  0  0  0  0  0  0
    0.1152    1.5761  -39.3615 H   0  0  0  0  0  0  0  0  0  0  0  0
  1  2  1  0
  1  8  1  0
  1  9  1  0
  2  3  2  0
  2  4  1  0
  4  5  1  0
  4  7  1  0
  4 10  1  0
  5  6  1  0
  5 11  1  0
  5 12  1  0
  6  7  1  0
  6 13  1  0
  6 14  1  0
  7 15  1  0
  7 16  1  0
M  END
> <intraLJ>
0.057     

> <intraEL>
-0.841    

> <intraDihe>
21.654    

> <interLJ>
0.000     

> <interEJ>
0.000     

> <gridLJ>
-2.070    

> <gridEL>
0.000     

> <totalE>
18.801    

> <LGFE>
-2.070  

> <LE>
-0.296  

> <SMILES>
NC(=O)C1CCC1

> <atom.dprop.GFE>
-0.32 0 -0.25 -0.32 -0.44 -0.42 -0.32 0 0 0 0 0 0 0 0 0

> <atom.prop.CLASS>
GEND NCLA GENA PRPC PRPC PRPC PRPC NCLA NCLA NCLA NCLA NCLA NCLA NCLA NCLA NCLA

$$$$
