28_2
     RDKit          3D

 10 10  0  0  0  0  0  0  0  0999 V2000
  -20.7163    8.0877   22.8359 C   0  0  0  0  0  0  0  0  0  0  0  0
  -20.9893    6.7761   23.0139 C   0  0  0  0  0  0  0  0  0  0  0  0
  -21.9145    6.4358   22.0615 N   0  0  0  0  0  0  0  0  0  0  0  0
  -22.2063    7.4952   21.3174 C   0  0  0  0  0  0  0  0  0  0  0  0
  -21.4827    8.5081   21.7802 N   0  0  0  0  0  0  0  0  0  0  0  0
  -20.0562    8.7392   23.3611 H   0  0  0  0  0  0  0  0  0  0  0  0
  -20.6107    6.0744   23.7229 H   0  0  0  0  0  0  0  0  0  0  0  0
  -22.3367    5.4914   21.9255 H   0  0  0  0  0  0  0  0  0  0  0  0
  -22.8942    7.5282   20.5008 H   0  0  0  0  0  0  0  0  0  0  0  0
  -21.5075    9.4729   21.3851 H   0  0  0  0  0  0  0  0  0  0  0  0
  1  2  2  0
  1  5  1  0
  1  6  1  0
  2  3  1  0
  2  7  1  0
  3  4  2  0
  3  8  1  0
  4  5  1  0
  4  9  1  0
  5 10  1  0
M  CHG  1   3   1
M  END
> <intraLJ>
-0.306    

> <intraEL>
3.276     

> <intraDihe>
0.000     

> <interLJ>
0.000     

> <interEJ>
0.000     

> <gridLJ>
-2.787    

> <gridEL>
0.000     

> <totalE>
0.184     

> <LGFE>
-2.787  

> <LE>
-0.557  

> <SMILES>
c1c[nH+]c[nH]1

> <atom.dprop.GFE>
0.16 0.15 0 -3.1 0 0 0 0 0 0

> <atom.prop.CLASS>
GEHC GEHC NCLA MAMC NCLA NCLA NCLA NCLA NCLA NCLA

$$$$
