4
     RDKit          3D

 13 13  0  0  0  0  0  0  0  0999 V2000
  -39.5955    7.0402   22.3111 O   0  0  0  0  0  0  0  0  0  0  0  0
  -39.8805    6.2434   21.1462 C   0  0  0  0  0  0  0  0  0  0  0  0
  -39.1501    6.9688   20.0053 C   0  0  0  0  0  0  0  0  0  0  0  0
  -39.8833    8.1146   19.3720 C   0  0  0  0  0  0  0  0  0  0  0  0
  -39.7408    6.8018   18.6363 C   0  0  0  0  0  0  0  0  0  0  0  0
  -40.0408    6.6760   23.0930 H   0  0  0  0  0  0  0  0  0  0  0  0
  -40.9461    6.2304   20.9602 H   0  0  0  0  0  0  0  0  0  0  0  0
  -39.4526    5.2558   21.2645 H   0  0  0  0  0  0  0  0  0  0  0  0
  -38.0746    7.0368   20.1078 H   0  0  0  0  0  0  0  0  0  0  0  0
  -39.2727    8.9379   19.0246 H   0  0  0  0  0  0  0  0  0  0  0  0
  -40.8611    8.3532   19.7704 H   0  0  0  0  0  0  0  0  0  0  0  0
  -40.6343    6.1985   18.5468 H   0  0  0  0  0  0  0  0  0  0  0  0
  -39.0425    6.7873   17.8091 H   0  0  0  0  0  0  0  0  0  0  0  0
  1  2  1  0
  1  6  1  0
  2  3  1  0
  2  7  1  0
  2  8  1  0
  3  4  1  0
  3  5  1  0
  3  9  1  0
  4  5  1  0
  4 10  1  0
  4 11  1  0
  5 12  1  0
  5 13  1  0
M  END
> <intraLJ>
-0.264    

> <intraEL>
1.551     

> <intraDihe>
2.184     

> <interLJ>
0.000     

> <interEJ>
0.000     

> <gridLJ>
-2.949    

> <gridEL>
0.000     

> <totalE>
0.522     

> <LGFE>
-2.949  

> <LE>
-0.590  

> <SMILES>
OCC1CC1

> <atom.dprop.GFE>
-0.65 -0.6 -0.61 -0.55 -0.53 0 0 0 0 0 0 0 0

> <atom.prop.CLASS>
MEOO PRPC PRPC PRPC PRPC NCLA NCLA NCLA NCLA NCLA NCLA NCLA NCLA

$$$$
