13
     RDKit          3D

 13 12  0  0  0  0  0  0  0  0999 V2000
   12.9465    4.4888  -44.2151 C   0  0  0  0  0  0  0  0  0  0  0  0
   13.2510    5.9499  -44.6095 C   0  0  0  0  0  0  0  0  0  0  0  0
   13.0938    6.8016  -43.3671 C   0  0  0  0  0  0  0  0  0  0  0  0
   14.0359    7.1306  -42.6637 O   0  0  0  0  0  0  0  0  0  0  0  0
   11.8499    7.2339  -43.0373 N   0  0  0  0  0  0  0  0  0  0  0  0
   11.6610    8.0396  -41.8961 O   0  0  0  0  0  0  0  0  0  0  0  0
   13.0325    3.8679  -45.1074 H   0  0  0  0  0  0  0  0  0  0  0  0
   11.9289    4.4392  -43.8216 H   0  0  0  0  0  0  0  0  0  0  0  0
   13.6616    4.1614  -43.4576 H   0  0  0  0  0  0  0  0  0  0  0  0
   12.5216    6.2773  -45.3377 H   0  0  0  0  0  0  0  0  0  0  0  0
   14.2682    6.0213  -44.9694 H   0  0  0  0  0  0  0  0  0  0  0  0
   11.0187    6.9992  -43.6038 H   0  0  0  0  0  0  0  0  0  0  0  0
   12.5676    8.1515  -41.5182 H   0  0  0  0  0  0  0  0  0  0  0  0
  1  2  1  0
  1  7  1  0
  1  8  1  0
  1  9  1  0
  2  3  1  0
  2 10  1  0
  2 11  1  0
  3  4  2  0
  3  5  1  0
  5  6  1  0
  5 12  1  0
  6 13  1  0
M  END
> <intraLJ>
0.053     

> <intraEL>
2.389     

> <intraDihe>
5.938     

> <interLJ>
0.000     

> <interEJ>
0.000     

> <gridLJ>
-2.731    

> <gridEL>
0.000     

> <totalE>
5.648     

> <LGFE>
-2.731  

> <LE>
-0.455  

> <SMILES>
CCC(=O)NO

> <atom.dprop.GFE>
-0.35 -0.33 0 -0.66 -0.73 -0.65 0 0 0 0 0 0 0

> <atom.prop.CLASS>
PRPC PRPC NCLA GENA GEND MEOO NCLA NCLA NCLA NCLA NCLA NCLA NCLA

$$$$
