26_1
     RDKit          3D

 13 13  0  0  0  0  0  0  0  0999 V2000
  -13.7020    9.2816   14.9458 O   0  0  0  0  0  0  0  0  0  0  0  0
  -12.3576    9.1254   15.4241 C   0  0  0  0  0  0  0  0  0  0  0  0
  -12.3697    7.7948   16.1667 C   0  0  0  0  0  0  0  0  0  0  0  0
  -11.7492    6.6267   15.7360 C   0  0  0  0  0  0  0  0  0  0  0  0
  -11.9961    5.6816   16.6696 C   0  0  0  0  0  0  0  0  0  0  0  0
  -12.7401    6.2899   17.6157 N   0  0  0  0  0  0  0  0  0  0  0  0
  -12.9773    7.5942   17.3155 N   0  0  0  0  0  0  0  0  0  0  0  0
  -14.1718    8.4755   15.2583 H   0  0  0  0  0  0  0  0  0  0  0  0
  -12.1242    9.9201   16.1189 H   0  0  0  0  0  0  0  0  0  0  0  0
  -11.6782    9.0598   14.5850 H   0  0  0  0  0  0  0  0  0  0  0  0
  -11.1889    6.4968   14.8458 H   0  0  0  0  0  0  0  0  0  0  0  0
  -11.7122    4.6630   16.7348 H   0  0  0  0  0  0  0  0  0  0  0  0
  -13.0997    5.8361   18.4773 H   0  0  0  0  0  0  0  0  0  0  0  0
  1  2  1  0
  1  8  1  0
  2  3  1  0
  2  9  1  0
  2 10  1  0
  3  4  1  0
  3  7  2  0
  4  5  2  0
  4 11  1  0
  5  6  1  0
  5 12  1  0
  6  7  1  0
  6 13  1  0
M  END
> <intraLJ>
0.248     

> <intraEL>
0.198     

> <intraDihe>
6.148     

> <interLJ>
0.000     

> <interEJ>
0.000     

> <gridLJ>
-2.243    

> <gridEL>
0.000     

> <totalE>
4.351     

> <LGFE>
-2.243  

> <LE>
-0.320  

> <SMILES>
OCc1cc[nH]n1

> <atom.dprop.GFE>
-0.45 -0.11 -0.093 -0.17 -0.17 -0.82 -0.44 0 0 0 0 0 0

> <atom.prop.CLASS>
MEOO PRPC GEHC GEHC GEHC GEND GENA NCLA NCLA NCLA NCLA NCLA NCLA

$$$$
