23_1
     RDKit          3D

 11 11  0  0  0  0  0  0  0  0999 V2000
  -21.0821    0.3110   25.4052 O   0  0  0  0  0  0  0  0  0  0  0  0
  -20.4495    0.4930   26.5366 C   0  0  0  0  0  0  0  0  0  0  0  0
  -21.0734    0.2466   27.6793 N   0  0  0  0  0  0  0  0  0  0  0  0
  -20.3965    0.4436   28.7978 C   0  0  0  0  0  0  0  0  0  0  0  0
  -19.0846    0.8923   28.7459 C   0  0  0  0  0  0  0  0  0  0  0  0
  -18.5071    1.1249   27.5070 C   0  0  0  0  0  0  0  0  0  0  0  0
  -19.2039    0.9208   26.3983 N   0  0  0  0  0  0  0  0  0  0  0  0
  -20.3870    0.5664   24.7762 H   0  0  0  0  0  0  0  0  0  0  0  0
  -20.8749    0.2536   29.7255 H   0  0  0  0  0  0  0  0  0  0  0  0
  -18.5361    1.0524   29.6363 H   0  0  0  0  0  0  0  0  0  0  0  0
  -17.5051    1.4678   27.4271 H   0  0  0  0  0  0  0  0  0  0  0  0
  1  2  1  0
  1  8  1  0
  2  3  2  0
  2  7  1  0
  3  4  1  0
  4  5  2  0
  4  9  1  0
  5  6  1  0
  5 10  1  0
  6  7  2  0
  6 11  1  0
M  END
> <intraLJ>
20.130    

> <intraEL>
-14.212   

> <intraDihe>
6.700     

> <interLJ>
0.000     

> <interEJ>
0.000     

> <gridLJ>
-2.569    

> <gridEL>
0.000     

> <totalE>
10.050    

> <LGFE>
-2.569  

> <LE>
-0.367  

> <SMILES>
Oc1ncccn1

> <atom.dprop.GFE>
-0.67 -0.16 -0.8 -0.16 -0.11 -0.056 -0.61 0 0 0 0

> <atom.prop.CLASS>
MEOO GEHC GENA BENC BENC BENC GENA NCLA NCLA NCLA NCLA

$$$$
