81_1
     RDKit          3D

 18 18  0  0  1  0  0  0  0  0999 V2000
  -24.1224   -6.3660   29.4015 N   0  0  0  0  0  0  0  0  0  0  0  0
  -24.9771   -6.6942   30.5712 C   0  0  0  0  0  0  0  0  0  0  0  0
  -25.4501   -5.4490   31.3458 C   0  0  0  0  0  0  0  0  0  0  0  0
  -26.4411   -4.5976   30.5565 C   0  0  0  0  0  0  0  0  0  0  0  0
  -26.3358   -3.2357   31.2427 C   0  0  0  0  0  0  0  0  0  0  0  0
  -24.9991   -3.3032   31.9841 C   0  0  0  0  0  0  0  0  0  0  0  0
  -24.4068   -4.5238   31.5860 O   0  0  0  0  0  0  0  0  0  0  0  0
  -23.8609   -7.2037   28.9002 H   0  0  0  0  0  0  0  0  0  0  0  0
  -23.2975   -5.8546   29.6835 H   0  0  0  0  0  0  0  0  0  0  0  0
  -25.8621   -7.2389   30.2368 H   0  0  0  0  0  0  0  0  0  0  0  0
  -24.4166   -7.3358   31.2541 H   0  0  0  0  0  0  0  0  0  0  0  0
  -25.9038   -5.7538   32.2903 H   0  0  0  0  0  0  0  0  0  0  0  0
  -26.1103   -4.5154   29.5193 H   0  0  0  0  0  0  0  0  0  0  0  0
  -27.4518   -5.0027   30.6119 H   0  0  0  0  0  0  0  0  0  0  0  0
  -27.1472   -3.0991   31.9595 H   0  0  0  0  0  0  0  0  0  0  0  0
  -26.3336   -2.4294   30.5086 H   0  0  0  0  0  0  0  0  0  0  0  0
  -25.1723   -3.3130   33.0626 H   0  0  0  0  0  0  0  0  0  0  0  0
  -24.3560   -2.4622   31.7192 H   0  0  0  0  0  0  0  0  0  0  0  0
  1  2  1  0
  1  8  1  0
  1  9  1  0
  2  3  1  0
  2 10  1  0
  2 11  1  0
  3  4  1  0
  3  7  1  0
  3 12  1  0
  4  5  1  0
  4 13  1  0
  4 14  1  0
  5  6  1  0
  5 15  1  0
  5 16  1  0
  6  7  1  0
  6 17  1  0
  6 18  1  0
M  END
> <intraLJ>
0.114     

> <intraEL>
2.647     

> <intraDihe>
8.925     

> <interLJ>
0.000     

> <interEJ>
0.000     

> <gridLJ>
-2.618    

> <gridEL>
0.000     

> <totalE>
9.069     

> <LGFE>
-2.618  

> <LE>
-0.374  

> <SMILES>
NCC1CCCO1

> <atom.dprop.GFE>
-0.55 -0.19 -0.27 -0.32 -0.31 -0.29 -0.68 0 0 0 0 0 0 0 0 0 0 0

> <atom.prop.CLASS>
GEND PRPC PRPC PRPC PRPC PRPC GENA NCLA NCLA NCLA NCLA NCLA NCLA NCLA NCLA NCLA NCLA NCLA

$$$$
