44
     RDKit          3D

 10  9  0  0  0  0  0  0  0  0999 V2000
  -37.9984    6.9197   16.1890 N   0  0  0  0  0  0  0  0  0  0  0  0
  -39.2526    7.1270   16.5600 C   0  0  0  0  0  0  0  0  0  0  0  0
  -39.8894    7.9721   15.9551 O   0  0  0  0  0  0  0  0  0  0  0  0
  -39.8462    6.3295   17.6926 C   0  0  0  0  0  0  0  0  0  0  0  0
  -40.2052    7.3343   18.7068 C   0  0  0  0  0  0  0  0  0  0  0  0
  -40.5028    8.1010   19.4896 N   0  0  0  0  0  0  0  0  0  0  0  0
  -37.6705    7.4708   15.4117 H   0  0  0  0  0  0  0  0  0  0  0  0
  -37.4248    6.2090   16.6100 H   0  0  0  0  0  0  0  0  0  0  0  0
  -39.0901    5.6773   18.1047 H   0  0  0  0  0  0  0  0  0  0  0  0
  -40.7498    5.8376   17.3662 H   0  0  0  0  0  0  0  0  0  0  0  0
  1  2  1  0
  1  7  1  0
  1  8  1  0
  2  3  2  0
  2  4  1  0
  4  5  1  0
  4  9  1  0
  4 10  1  0
  5  6  3  0
M  END
> <intraLJ>
0.113     

> <intraEL>
-8.537    

> <intraDihe>
0.329     

> <interLJ>
0.000     

> <interEJ>
0.000     

> <gridLJ>
-2.817    

> <gridEL>
0.000     

> <totalE>
-10.912   

> <LGFE>
-2.817  

> <LE>
-0.469  

> <SMILES>
N#CCC(N)=O

> <atom.dprop.GFE>
-0.98 0 -0.7 -0.38 0 -0.76 0 0 0 0

> <atom.prop.CLASS>
GEND NCLA GENA PRPC NCLA GENA NCLA NCLA NCLA NCLA

$$$$
