21_2
     RDKit          3D

 17 16  0  0  0  0  0  0  0  0999 V2000
   -8.4255   -0.9029   11.3406 C   0  0  0  0  0  0  0  0  0  0  0  0
   -9.2992    0.3588   11.5187 C   0  0  0  0  0  0  0  0  0  0  0  0
  -10.7690   -0.1013   11.6099 C   0  0  0  0  0  0  0  0  0  0  0  0
   -9.1452    1.2441   10.2931 C   0  0  0  0  0  0  0  0  0  0  0  0
   -8.7664    2.4736   10.4394 N   0  0  0  0  0  0  0  0  0  0  0  0
   -8.5825    3.3593    9.4874 O   0  0  0  0  0  0  0  0  0  0  0  0
   -9.3670    0.8387    9.0392 N   0  0  0  0  0  0  0  0  0  0  0  0
   -8.5036   -1.5010   12.2501 H   0  0  0  0  0  0  0  0  0  0  0  0
   -7.3915   -0.5865   11.1985 H   0  0  0  0  0  0  0  0  0  0  0  0
   -8.7654   -1.4880   10.4854 H   0  0  0  0  0  0  0  0  0  0  0  0
   -9.0125    0.8935   12.4148 H   0  0  0  0  0  0  0  0  0  0  0  0
  -11.0403   -0.6792   10.7250 H   0  0  0  0  0  0  0  0  0  0  0  0
  -11.4005    0.7843   11.6912 H   0  0  0  0  0  0  0  0  0  0  0  0
  -10.8821   -0.7151   12.5043 H   0  0  0  0  0  0  0  0  0  0  0  0
   -8.6192    2.6976   11.4397 H   0  0  0  0  0  0  0  0  0  0  0  0
   -9.2208    1.5262    8.2853 H   0  0  0  0  0  0  0  0  0  0  0  0
   -9.6546   -0.1265    8.8397 H   0  0  0  0  0  0  0  0  0  0  0  0
  1  2  1  0
  1  8  1  0
  1  9  1  0
  1 10  1  0
  2  3  1  0
  2  4  1  0
  2 11  1  0
  3 12  1  0
  3 13  1  0
  3 14  1  0
  4  5  2  0
  4  7  1  0
  5  6  1  0
  5 15  1  0
  7 16  1  0
  7 17  1  0
M  CHG  2   5   1   6  -1
M  END
> <intraLJ>
4.543     

> <intraEL>
-0.793    

> <intraDihe>
0.560     

> <interLJ>
0.000     

> <interEJ>
0.000     

> <gridLJ>
-2.395    

> <gridEL>
0.000     

> <totalE>
1.915     

> <LGFE>
-2.395  

> <LE>
-0.342  

> <SMILES>
CC(C)C(N)=[NH+][O-]

> <atom.dprop.GFE>
-0.081 0.059 -0.13 -2.2 0 0 0 0 0 0 0 0 0 0 0 0 0

> <atom.prop.CLASS>
PRPC PRPC PRPC MAMC NCLA NCLA NCLA NCLA NCLA NCLA NCLA NCLA NCLA NCLA NCLA NCLA NCLA

$$$$
