33
     RDKit          3D

 12 12  0  0  0  0  0  0  0  0999 V2000
  -15.1976    8.9603   -2.5043 N   0  0  0  0  0  0  0  0  0  0  0  0
  -16.1923    8.0493   -2.2796 C   0  0  0  0  0  0  0  0  0  0  0  0
  -17.4106    8.1300   -2.9393 C   0  0  0  0  0  0  0  0  0  0  0  0
  -18.3639    7.1693   -2.6406 C   0  0  0  0  0  0  0  0  0  0  0  0
  -18.0465    6.1922   -1.7068 C   0  0  0  0  0  0  0  0  0  0  0  0
  -16.8478    6.1683   -1.1030 N   0  0  0  0  0  0  0  0  0  0  0  0
  -15.9240    7.0875   -1.3839 N   0  0  0  0  0  0  0  0  0  0  0  0
  -14.4650    8.9270   -1.7830 H   0  0  0  0  0  0  0  0  0  0  0  0
  -15.5097    9.8988   -2.7792 H   0  0  0  0  0  0  0  0  0  0  0  0
  -17.5939    8.8948   -3.6466 H   0  0  0  0  0  0  0  0  0  0  0  0
  -19.3121    7.1757   -3.1123 H   0  0  0  0  0  0  0  0  0  0  0  0
  -18.7450    5.4385   -1.4486 H   0  0  0  0  0  0  0  0  0  0  0  0
  1  2  1  0
  1  8  1  0
  1  9  1  0
  2  3  2  0
  2  7  1  0
  3  4  1  0
  3 10  1  0
  4  5  2  0
  4 11  1  0
  5  6  1  0
  5 12  1  0
  6  7  2  0
M  END
> <intraLJ>
16.642    

> <intraEL>
-7.622    

> <intraDihe>
1.828     

> <interLJ>
0.000     

> <interEJ>
0.000     

> <gridLJ>
-6.363    

> <gridEL>
0.000     

> <totalE>
4.485     

> <LGFE>
-6.363  

> <LE>
-0.909  

> <SMILES>
Nc1cccnn1

> <atom.dprop.GFE>
-1.4 -0.42 -0.21 -0.22 -0.24 -1.9 -2 0 0 0 0 0

> <atom.prop.CLASS>
GEND GEHC BENC BENC BENC GENA GENA NCLA NCLA NCLA NCLA NCLA

$$$$
