14_1
     RDKit          3D

 18 18  0  0  1  0  0  0  0  0999 V2000
   17.7427   12.1464  -34.4505 C   0  0  0  0  0  0  0  0  0  0  0  0
   17.0075   13.3775  -34.1258 N   0  0  0  0  0  0  0  0  0  0  0  0
   17.9184   14.5123  -33.8997 C   0  0  0  0  0  0  0  0  0  0  0  0
   17.1148   15.7477  -34.3565 C   0  0  0  0  0  0  0  0  0  0  0  0
   15.7637   15.1953  -34.8016 C   0  0  0  0  0  0  0  0  0  0  0  0
   14.9204   15.1156  -33.6750 O   0  0  0  0  0  0  0  0  0  0  0  0
   16.0968   13.7611  -35.2132 C   0  0  0  0  0  0  0  0  0  0  0  0
   18.3896   11.9200  -33.6120 H   0  0  0  0  0  0  0  0  0  0  0  0
   18.3171   12.3084  -35.3534 H   0  0  0  0  0  0  0  0  0  0  0  0
   17.0168   11.3565  -34.5878 H   0  0  0  0  0  0  0  0  0  0  0  0
   18.1429   14.5890  -32.8426 H   0  0  0  0  0  0  0  0  0  0  0  0
   18.8033   14.4270  -34.5183 H   0  0  0  0  0  0  0  0  0  0  0  0
   17.6158   16.2173  -35.2025 H   0  0  0  0  0  0  0  0  0  0  0  0
   16.9951   16.4661  -33.5453 H   0  0  0  0  0  0  0  0  0  0  0  0
   15.3092   15.8032  -35.5860 H   0  0  0  0  0  0  0  0  0  0  0  0
   15.3237   14.4094  -33.1524 H   0  0  0  0  0  0  0  0  0  0  0  0
   16.6179   13.7794  -36.1613 H   0  0  0  0  0  0  0  0  0  0  0  0
   15.2030   13.1502  -35.2121 H   0  0  0  0  0  0  0  0  0  0  0  0
  1  2  1  0
  1  8  1  0
  1  9  1  0
  1 10  1  0
  2  3  1  0
  2  7  1  0
  3  4  1  0
  3 11  1  0
  3 12  1  0
  4  5  1  0
  4 13  1  0
  4 14  1  0
  5  6  1  0
  5  7  1  0
  5 15  1  0
  6 16  1  0
  7 17  1  0
  7 18  1  0
M  END
> <intraLJ>
3.504     

> <intraEL>
0.090     

> <intraDihe>
11.625    

> <interLJ>
0.000     

> <interEJ>
0.000     

> <gridLJ>
-3.055    

> <gridEL>
0.000     

> <totalE>
12.164    

> <LGFE>
-3.055  

> <LE>
-0.436  

> <SMILES>
CN1CCC(O)C1

> <atom.dprop.GFE>
-0.32 -0.89 -0.38 -0.37 -0.38 -0.45 -0.27 0 0 0 0 0 0 0 0 0 0 0

> <atom.prop.CLASS>
PRPC GEND PRPC PRPC PRPC MEOO PRPC NCLA NCLA NCLA NCLA NCLA NCLA NCLA NCLA NCLA NCLA NCLA

$$$$
