63
     RDKit          3D

 11 11  0  0  0  0  0  0  0  0999 V2000
    1.9174   -1.8827   -6.5338 O   0  0  0  0  0  0  0  0  0  0  0  0
    2.2029   -2.5948   -5.5987 C   0  0  0  0  0  0  0  0  0  0  0  0
    1.4946   -2.7677   -4.2686 C   0  0  0  0  0  0  0  0  0  0  0  0
    2.3941   -3.7643   -3.6627 N   0  0  0  0  0  0  0  0  0  0  0  0
    3.4118   -4.0956   -4.4822 C   0  0  0  0  0  0  0  0  0  0  0  0
    4.2963   -4.8900   -4.2401 O   0  0  0  0  0  0  0  0  0  0  0  0
    3.2865   -3.3936   -5.6289 N   0  0  0  0  0  0  0  0  0  0  0  0
    0.5096   -3.1797   -4.4359 H   0  0  0  0  0  0  0  0  0  0  0  0
    1.5201   -1.8334   -3.7237 H   0  0  0  0  0  0  0  0  0  0  0  0
    2.3168   -4.1992   -2.7328 H   0  0  0  0  0  0  0  0  0  0  0  0
    3.9361   -3.4638   -6.4154 H   0  0  0  0  0  0  0  0  0  0  0  0
  1  2  2  0
  2  3  1  0
  2  7  1  0
  3  4  1  0
  3  8  1  0
  3  9  1  0
  4  5  1  0
  4 10  1  0
  5  6  2  0
  5  7  1  0
  7 11  1  0
M  END
> <intraLJ>
-0.609    

> <intraEL>
-7.501    

> <intraDihe>
0.000     

> <interLJ>
0.000     

> <interEJ>
0.000     

> <gridLJ>
-4.691    

> <gridEL>
0.000     

> <totalE>
-12.801   

> <LGFE>
-4.691  

> <LE>
-0.670  

> <SMILES>
O=C1CNC(=O)N1

> <atom.dprop.GFE>
-1.8 -0.27 -0.58 -0.97 -0.019 -0.45 -0.62 0 0 0 0

> <atom.prop.CLASS>
GENA GEHC PRPC GEND GEHC GENA GEND NCLA NCLA NCLA NCLA

$$$$
