71_1
     RDKit          3D

 18 18  0  0  0  0  0  0  0  0999 V2000
    6.3930   16.7584  -29.6595 C   0  0  0  0  0  0  0  0  0  0  0  0
    5.9920   15.6606  -30.6516 C   0  0  0  0  0  0  0  0  0  0  0  0
    7.0579   14.6597  -30.8978 N   0  0  0  0  0  0  0  0  0  0  0  0
    8.4661   15.1402  -30.8896 C   0  0  0  0  0  0  0  0  0  0  0  0
    8.6813   16.4855  -31.5980 C   0  0  0  0  0  0  0  0  0  0  0  0
    8.5092   17.5694  -30.6868 O   0  0  0  0  0  0  0  0  0  0  0  0
    7.1670   17.8942  -30.3473 C   0  0  0  0  0  0  0  0  0  0  0  0
    6.9761   16.3398  -28.8392 H   0  0  0  0  0  0  0  0  0  0  0  0
    5.4813   17.1832  -29.2433 H   0  0  0  0  0  0  0  0  0  0  0  0
    5.7130   16.1355  -31.5940 H   0  0  0  0  0  0  0  0  0  0  0  0
    5.1102   15.1388  -30.2732 H   0  0  0  0  0  0  0  0  0  0  0  0
    6.8484   14.1512  -31.7472 H   0  0  0  0  0  0  0  0  0  0  0  0
    9.1053   14.3832  -31.3460 H   0  0  0  0  0  0  0  0  0  0  0  0
    8.7979   15.2616  -29.8570 H   0  0  0  0  0  0  0  0  0  0  0  0
    8.0194   16.5780  -32.4598 H   0  0  0  0  0  0  0  0  0  0  0  0
    9.7118   16.5146  -31.9515 H   0  0  0  0  0  0  0  0  0  0  0  0
    7.2012   18.7423  -29.6610 H   0  0  0  0  0  0  0  0  0  0  0  0
    6.6296   18.2180  -31.2410 H   0  0  0  0  0  0  0  0  0  0  0  0
  1  2  1  0
  1  7  1  0
  1  8  1  0
  1  9  1  0
  2  3  1  0
  2 10  1  0
  2 11  1  0
  3  4  1  0
  3 12  1  0
  4  5  1  0
  4 13  1  0
  4 14  1  0
  5  6  1  0
  5 15  1  0
  5 16  1  0
  6  7  1  0
  7 17  1  0
  7 18  1  0
M  END
> <intraLJ>
0.655     

> <intraEL>
0.902     

> <intraDihe>
9.506     

> <interLJ>
0.000     

> <interEJ>
0.000     

> <gridLJ>
-2.247    

> <gridEL>
0.000     

> <totalE>
8.816     

> <LGFE>
-2.247  

> <LE>
-0.321  

> <SMILES>
C1CNCCOC1

> <atom.dprop.GFE>
-0.24 -0.26 -0.56 -0.2 -0.34 -0.38 -0.27 0 0 0 0 0 0 0 0 0 0 0

> <atom.prop.CLASS>
PRPC PRPC GEND PRPC PRPC GENA PRPC NCLA NCLA NCLA NCLA NCLA NCLA NCLA NCLA NCLA NCLA NCLA

$$$$
