29_2
     RDKit          3D

 13 13  0  0  0  0  0  0  0  0999 V2000
  -30.5057  -13.9444   19.9277 N   0  0  0  0  0  0  0  0  0  0  0  0
  -30.1150  -13.4178   18.7035 C   0  0  0  0  0  0  0  0  0  0  0  0
  -29.3426  -13.9754   17.7424 C   0  0  0  0  0  0  0  0  0  0  0  0
  -29.1813  -12.9066   16.3848 S   0  0  0  0  0  0  0  0  0  0  0  0
  -30.1815  -11.7639   17.1726 C   0  0  0  0  0  0  0  0  0  0  0  0
  -30.5330  -10.5759   16.6450 N   0  0  0  0  0  0  0  0  0  0  0  0
  -30.5858  -12.1736   18.3750 N   0  0  0  0  0  0  0  0  0  0  0  0
  -30.5496  -13.2762   20.7120 H   0  0  0  0  0  0  0  0  0  0  0  0
  -29.9655  -14.7899   20.1843 H   0  0  0  0  0  0  0  0  0  0  0  0
  -28.8792  -14.9291   17.7636 H   0  0  0  0  0  0  0  0  0  0  0  0
  -31.1472   -9.9062   17.1299 H   0  0  0  0  0  0  0  0  0  0  0  0
  -30.1857  -10.3271   15.7023 H   0  0  0  0  0  0  0  0  0  0  0  0
  -31.2221  -11.6385   18.9734 H   0  0  0  0  0  0  0  0  0  0  0  0
  1  2  1  0
  1  8  1  0
  1  9  1  0
  2  3  2  0
  2  7  1  0
  3  4  1  0
  3 10  1  0
  4  5  1  0
  5  6  2  0
  5  7  1  0
  6 11  1  0
  6 12  1  0
  7 13  1  0
M  CHG  1   6   1
M  END
> <intraLJ>
-0.730    

> <intraEL>
-5.242    

> <intraDihe>
2.059     

> <interLJ>
0.000     

> <interEJ>
0.000     

> <gridLJ>
-2.819    

> <gridEL>
0.000     

> <totalE>
-6.732    

> <LGFE>
-2.819  

> <LE>
-0.403  

> <SMILES>
Nc1csc(=[NH2+])[nH]1

> <atom.dprop.GFE>
0.22 0.15 0.23 0.36 -1.8 -2 0 0 0 0 0 0 0

> <atom.prop.CLASS>
GEND GEHC GEHC PRPC MAMC MAMN NCLA NCLA NCLA NCLA NCLA NCLA NCLA

$$$$
