22
     RDKit          3D

 12 12  0  0  0  0  0  0  0  0999 V2000
   -3.0240    3.7607    7.4777 O   0  0  0  0  0  0  0  0  0  0  0  0
   -2.5174    3.5097    8.7850 S   0  0  0  0  0  0  0  0  0  0  0  0
   -1.1377    3.2053    8.9651 O   0  0  0  0  0  0  0  0  0  0  0  0
   -3.0579    4.7136    9.9214 C   0  0  0  0  0  0  0  0  0  0  0  0
   -3.9740    3.5999   10.6641 C   0  0  0  0  0  0  0  0  0  0  0  0
   -3.5349    2.4022    9.6614 C   0  0  0  0  0  0  0  0  0  0  0  0
   -3.7106    5.5046    9.5780 H   0  0  0  0  0  0  0  0  0  0  0  0
   -2.3576    5.1050   10.6459 H   0  0  0  0  0  0  0  0  0  0  0  0
   -5.0298    3.8245   10.5969 H   0  0  0  0  0  0  0  0  0  0  0  0
   -3.6558    3.4194   11.6819 H   0  0  0  0  0  0  0  0  0  0  0  0
   -3.0755    1.6222   10.2553 H   0  0  0  0  0  0  0  0  0  0  0  0
   -4.4294    2.0208    9.1870 H   0  0  0  0  0  0  0  0  0  0  0  0
  1  2  2  0
  2  3  2  0
  2  4  1  0
  2  6  1  0
  4  5  1  0
  4  7  1  0
  4  8  1  0
  5  6  1  0
  5  9  1  0
  5 10  1  0
  6 11  1  0
  6 12  1  0
M  END
> <intraLJ>
-0.830    

> <intraEL>
0.015     

> <intraDihe>
20.344    

> <interLJ>
0.000     

> <interEJ>
0.000     

> <gridLJ>
-3.055    

> <gridEL>
0.000     

> <totalE>
16.474    

> <LGFE>
-3.055  

> <LE>
-0.509  

> <SMILES>
O=S1(=O)CCC1

> <atom.dprop.GFE>
-0.91 0 -1.1 -0.4 -0.26 -0.4 0 0 0 0 0 0

> <atom.prop.CLASS>
GENA NCLA GENA PRPC PRPC PRPC NCLA NCLA NCLA NCLA NCLA NCLA

$$$$
