67
     RDKit          3D

 15 15  0  0  1  0  0  0  0  0999 V2000
   17.3207   -5.5445  -21.5315 O   0  0  0  0  0  0  0  0  0  0  0  0
   16.8289   -5.8109  -22.8463 C   0  0  0  0  0  0  0  0  0  0  0  0
   16.4567   -4.5498  -23.6213 C   0  0  0  0  0  0  0  0  0  0  0  0
   16.4555   -4.9648  -24.9747 O   0  0  0  0  0  0  0  0  0  0  0  0
   17.5615   -5.8436  -25.1418 C   0  0  0  0  0  0  0  0  0  0  0  0
   17.9070   -6.4165  -23.7600 C   0  0  0  0  0  0  0  0  0  0  0  0
   19.1911   -5.9811  -23.3452 O   0  0  0  0  0  0  0  0  0  0  0  0
   16.5975   -5.2321  -20.9777 H   0  0  0  0  0  0  0  0  0  0  0  0
   15.9682   -6.4810  -22.8128 H   0  0  0  0  0  0  0  0  0  0  0  0
   17.2176   -3.7825  -23.4668 H   0  0  0  0  0  0  0  0  0  0  0  0
   15.4751   -4.1775  -23.3260 H   0  0  0  0  0  0  0  0  0  0  0  0
   17.3026   -6.6455  -25.8343 H   0  0  0  0  0  0  0  0  0  0  0  0
   18.4178   -5.2900  -25.5311 H   0  0  0  0  0  0  0  0  0  0  0  0
   17.8457   -7.5056  -23.7582 H   0  0  0  0  0  0  0  0  0  0  0  0
   19.0805   -5.7527  -22.4094 H   0  0  0  0  0  0  0  0  0  0  0  0
  1  2  1  0
  1  8  1  0
  2  3  1  0
  2  6  1  0
  2  9  1  0
  3  4  1  0
  3 10  1  0
  3 11  1  0
  4  5  1  0
  5  6  1  0
  5 12  1  0
  5 13  1  0
  6  7  1  0
  6 14  1  0
  7 15  1  0
M  END
> <intraLJ>
4.089     

> <intraEL>
1.909     

> <intraDihe>
14.436    

> <interLJ>
0.000     

> <interEJ>
0.000     

> <gridLJ>
-2.110    

> <gridEL>
0.000     

> <totalE>
18.324    

> <LGFE>
-2.110  

> <LE>
-0.301  

> <SMILES>
OC1COCC1O

> <atom.dprop.GFE>
-0.23 -0.38 -0.34 -0.32 -0.4 -0.34 -0.1 0 0 0 0 0 0 0 0

> <atom.prop.CLASS>
MEOO PRPC PRPC GENA PRPC PRPC MEOO NCLA NCLA NCLA NCLA NCLA NCLA NCLA NCLA

$$$$
