23_3
     RDKit          3D

 11 11  0  0  0  0  0  0  0  0999 V2000
  -16.9726    9.2407   -5.9012 O   0  0  0  0  0  0  0  0  0  0  0  0
  -16.3850   10.3105   -5.8525 C   0  0  0  0  0  0  0  0  0  0  0  0
  -16.4384   10.9789   -4.6634 N   0  0  0  0  0  0  0  0  0  0  0  0
  -15.8236   12.1907   -4.4679 C   0  0  0  0  0  0  0  0  0  0  0  0
  -15.1429   12.7169   -5.5220 C   0  0  0  0  0  0  0  0  0  0  0  0
  -15.0971   12.0060   -6.7549 C   0  0  0  0  0  0  0  0  0  0  0  0
  -15.6811   10.8739   -6.9113 N   0  0  0  0  0  0  0  0  0  0  0  0
  -16.9751   10.5050   -3.9240 H   0  0  0  0  0  0  0  0  0  0  0  0
  -15.9219   12.6336   -3.5068 H   0  0  0  0  0  0  0  0  0  0  0  0
  -14.6448   13.6467   -5.4442 H   0  0  0  0  0  0  0  0  0  0  0  0
  -14.5647   12.4199   -7.5739 H   0  0  0  0  0  0  0  0  0  0  0  0
  1  2  2  0
  2  3  1  0
  2  7  1  0
  3  4  1  0
  3  8  1  0
  4  5  2  0
  4  9  1  0
  5  6  1  0
  5 10  1  0
  6  7  2  0
  6 11  1  0
M  END
> <intraLJ>
11.692    

> <intraEL>
-4.846    

> <intraDihe>
0.000     

> <interLJ>
0.000     

> <interEJ>
0.000     

> <gridLJ>
-3.194    

> <gridEL>
0.000     

> <totalE>
3.652     

> <LGFE>
-3.194  

> <LE>
-0.456  

> <SMILES>
O=c1nccc[nH]1

> <atom.dprop.GFE>
-1.1 -0.26 -0.47 -0.04 -0.0068 -0.012 -1.3 0 0 0 0

> <atom.prop.CLASS>
GENA GEHC GEND BENC BENC BENC GENA NCLA NCLA NCLA NCLA

$$$$
