80
     RDKit          3D

 16 16  0  0  0  0  0  0  0  0999 V2000
   18.2694   -3.8606  -35.5932 N   0  0  0  0  0  0  0  0  0  0  0  0
   18.2589   -2.6302  -35.0573 C   0  0  0  0  0  0  0  0  0  0  0  0
   18.7544   -1.7530  -35.7271 O   0  0  0  0  0  0  0  0  0  0  0  0
   17.6399   -2.4318  -33.6840 C   0  0  0  0  0  0  0  0  0  0  0  0
   16.1098   -2.7024  -33.6480 C   0  0  0  0  0  0  0  0  0  0  0  0
   16.0106   -1.4687  -32.7020 C   0  0  0  0  0  0  0  0  0  0  0  0
   17.3257   -0.9461  -33.3520 C   0  0  0  0  0  0  0  0  0  0  0  0
   18.6855   -3.9625  -36.5035 H   0  0  0  0  0  0  0  0  0  0  0  0
   17.8771   -4.6424  -35.1018 H   0  0  0  0  0  0  0  0  0  0  0  0
   18.1949   -2.9463  -32.9084 H   0  0  0  0  0  0  0  0  0  0  0  0
   15.8386   -3.6394  -33.1818 H   0  0  0  0  0  0  0  0  0  0  0  0
   15.6169   -2.5337  -34.5967 H   0  0  0  0  0  0  0  0  0  0  0  0
   16.1384   -1.7328  -31.6594 H   0  0  0  0  0  0  0  0  0  0  0  0
   15.1488   -0.8416  -32.8829 H   0  0  0  0  0  0  0  0  0  0  0  0
   17.1377   -0.3358  -34.2257 H   0  0  0  0  0  0  0  0  0  0  0  0
   18.0160   -0.4948  -32.6527 H   0  0  0  0  0  0  0  0  0  0  0  0
  1  2  1  0
  1  8  1  0
  1  9  1  0
  2  3  2  0
  2  4  1  0
  4  5  1  0
  4  7  1  0
  4 10  1  0
  5  6  1  0
  5 11  1  0
  5 12  1  0
  6  7  1  0
  6 13  1  0
  6 14  1  0
  7 15  1  0
  7 16  1  0
M  END
> <intraLJ>
0.059     

> <intraEL>
-0.840    

> <intraDihe>
21.652    

> <interLJ>
0.000     

> <interEJ>
0.000     

> <gridLJ>
-3.794    

> <gridEL>
0.000     

> <totalE>
17.077    

> <LGFE>
-3.794  

> <LE>
-0.542  

> <SMILES>
NC(=O)C1CCC1

> <atom.dprop.GFE>
-0.61 0 -1.4 -0.49 -0.43 -0.49 -0.42 0 0 0 0 0 0 0 0 0

> <atom.prop.CLASS>
GEND NCLA GENA PRPC PRPC PRPC PRPC NCLA NCLA NCLA NCLA NCLA NCLA NCLA NCLA NCLA

$$$$
