80
     RDKit          3D

 16 16  0  0  0  0  0  0  0  0999 V2000
   18.8438   -5.4028  -20.8078 N   0  0  0  0  0  0  0  0  0  0  0  0
   18.8976   -5.4859  -22.1462 C   0  0  0  0  0  0  0  0  0  0  0  0
   19.9223   -5.9298  -22.6118 O   0  0  0  0  0  0  0  0  0  0  0  0
   17.6983   -5.0299  -22.9600 C   0  0  0  0  0  0  0  0  0  0  0  0
   16.3982   -5.8218  -22.6463 C   0  0  0  0  0  0  0  0  0  0  0  0
   16.1155   -5.7774  -24.1776 C   0  0  0  0  0  0  0  0  0  0  0  0
   17.6515   -5.6344  -24.3912 C   0  0  0  0  0  0  0  0  0  0  0  0
   19.6521   -5.7118  -20.2947 H   0  0  0  0  0  0  0  0  0  0  0  0
   18.0287   -5.0465  -20.3439 H   0  0  0  0  0  0  0  0  0  0  0  0
   17.5736   -3.9537  -22.9344 H   0  0  0  0  0  0  0  0  0  0  0  0
   15.6821   -5.2749  -22.0489 H   0  0  0  0  0  0  0  0  0  0  0  0
   16.5783   -6.8281  -22.2905 H   0  0  0  0  0  0  0  0  0  0  0  0
   15.5700   -4.8900  -24.4742 H   0  0  0  0  0  0  0  0  0  0  0  0
   15.6972   -6.6911  -24.5762 H   0  0  0  0  0  0  0  0  0  0  0  0
   18.1456   -6.5936  -24.4744 H   0  0  0  0  0  0  0  0  0  0  0  0
   17.9267   -4.9397  -25.1728 H   0  0  0  0  0  0  0  0  0  0  0  0
  1  2  1  0
  1  8  1  0
  1  9  1  0
  2  3  2  0
  2  4  1  0
  4  5  1  0
  4  7  1  0
  4 10  1  0
  5  6  1  0
  5 11  1  0
  5 12  1  0
  6  7  1  0
  6 13  1  0
  6 14  1  0
  7 15  1  0
  7 16  1  0
M  END
> <intraLJ>
0.042     

> <intraEL>
-0.847    

> <intraDihe>
21.697    

> <interLJ>
0.000     

> <interEJ>
0.000     

> <gridLJ>
-2.655    

> <gridEL>
0.000     

> <totalE>
18.237    

> <LGFE>
-2.655  

> <LE>
-0.379  

> <SMILES>
NC(=O)C1CCC1

> <atom.dprop.GFE>
-0.62 0 -0.6 -0.3 -0.38 -0.43 -0.33 0 0 0 0 0 0 0 0 0

> <atom.prop.CLASS>
GEND NCLA GENA PRPC PRPC PRPC PRPC NCLA NCLA NCLA NCLA NCLA NCLA NCLA NCLA NCLA

$$$$
