27_2
     RDKit          3D

 12 12  0  0  0  0  0  0  0  0999 V2000
  -26.6248    6.9842   37.4705 N   0  0  0  0  0  0  0  0  0  0  0  0
  -25.7675    7.9194   37.8035 C   0  0  0  0  0  0  0  0  0  0  0  0
  -24.7391    8.3027   37.0824 N   0  0  0  0  0  0  0  0  0  0  0  0
  -24.0682    9.3069   37.7574 C   0  0  0  0  0  0  0  0  0  0  0  0
  -24.7366    9.5082   38.9120 C   0  0  0  0  0  0  0  0  0  0  0  0
  -25.7994    8.6216   38.9128 N   0  0  0  0  0  0  0  0  0  0  0  0
  -27.4023    6.7481   38.0986 H   0  0  0  0  0  0  0  0  0  0  0  0
  -26.5237    6.4837   36.5801 H   0  0  0  0  0  0  0  0  0  0  0  0
  -24.5052    7.8962   36.1661 H   0  0  0  0  0  0  0  0  0  0  0  0
  -23.1978    9.7832   37.3765 H   0  0  0  0  0  0  0  0  0  0  0  0
  -24.5464   10.1886   39.7055 H   0  0  0  0  0  0  0  0  0  0  0  0
  -26.5166    8.5009   39.6402 H   0  0  0  0  0  0  0  0  0  0  0  0
  1  2  2  0
  1  7  1  0
  1  8  1  0
  2  3  1  0
  2  6  1  0
  3  4  1  0
  3  9  1  0
  4  5  2  0
  4 10  1  0
  5  6  1  0
  5 11  1  0
  6 12  1  0
M  CHG  1   1   1
M  END
> <intraLJ>
-0.384    

> <intraEL>
3.349     

> <intraDihe>
0.000     

> <interLJ>
0.000     

> <interEJ>
0.000     

> <gridLJ>
-2.190    

> <gridEL>
0.000     

> <totalE>
0.775     

> <LGFE>
-2.190  

> <LE>
-0.365  

> <SMILES>
[NH2+]=c1[nH]cc[nH]1

> <atom.dprop.GFE>
-1.2 -1.1 0 0.014 0.073 0 0 0 0 0 0 0

> <atom.prop.CLASS>
MAMN MAMC NCLA GEHC GEHC NCLA NCLA NCLA NCLA NCLA NCLA NCLA

$$$$
