13
     RDKit          3D

 13 12  0  0  0  0  0  0  0  0999 V2000
   -4.3557   10.0424    8.8204 C   0  0  0  0  0  0  0  0  0  0  0  0
   -5.4436   10.8785    8.1129 C   0  0  0  0  0  0  0  0  0  0  0  0
   -5.0056   11.0782    6.6769 C   0  0  0  0  0  0  0  0  0  0  0  0
   -4.4958   12.1124    6.2757 O   0  0  0  0  0  0  0  0  0  0  0  0
   -5.1701   10.0500    5.8059 N   0  0  0  0  0  0  0  0  0  0  0  0
   -4.7642   10.1893    4.4632 O   0  0  0  0  0  0  0  0  0  0  0  0
   -4.6477    9.9121    9.8630 H   0  0  0  0  0  0  0  0  0  0  0  0
   -3.4084   10.5828    8.7621 H   0  0  0  0  0  0  0  0  0  0  0  0
   -4.2683    9.0712    8.3291 H   0  0  0  0  0  0  0  0  0  0  0  0
   -5.5043   11.8494    8.5854 H   0  0  0  0  0  0  0  0  0  0  0  0
   -6.3811   10.3401    8.1326 H   0  0  0  0  0  0  0  0  0  0  0  0
   -5.5817    9.1472    6.0931 H   0  0  0  0  0  0  0  0  0  0  0  0
   -4.3933   11.1040    4.4093 H   0  0  0  0  0  0  0  0  0  0  0  0
  1  2  1  0
  1  7  1  0
  1  8  1  0
  1  9  1  0
  2  3  1  0
  2 10  1  0
  2 11  1  0
  3  4  2  0
  3  5  1  0
  5  6  1  0
  5 12  1  0
  6 13  1  0
M  END
> <intraLJ>
0.050     

> <intraEL>
2.369     

> <intraDihe>
5.921     

> <interLJ>
0.000     

> <interEJ>
0.000     

> <gridLJ>
-2.145    

> <gridEL>
0.000     

> <totalE>
6.195     

> <LGFE>
-2.145  

> <LE>
-0.358  

> <SMILES>
CCC(=O)NO

> <atom.dprop.GFE>
0.00067 0.055 0 -0.88 -0.43 -0.89 0 0 0 0 0 0 0

> <atom.prop.CLASS>
PRPC PRPC NCLA GENA GEND MEOO NCLA NCLA NCLA NCLA NCLA NCLA NCLA

$$$$
