46_2
     RDKit          3D

 15 15  0  0  0  0  0  0  0  0999 V2000
  -33.2239   -3.5102   12.3526 C   0  0  0  0  0  0  0  0  0  0  0  0
  -34.0992   -3.0321   11.1788 C   0  0  0  0  0  0  0  0  0  0  0  0
  -33.1979   -2.0746   10.4043 C   0  0  0  0  0  0  0  0  0  0  0  0
  -31.8292   -2.5313   10.7020 N   0  0  0  0  0  0  0  0  0  0  0  0
  -31.9008   -2.7749   12.1539 C   0  0  0  0  0  0  0  0  0  0  0  0
  -33.0666   -4.5884   12.2903 H   0  0  0  0  0  0  0  0  0  0  0  0
  -33.6665   -3.2519   13.3172 H   0  0  0  0  0  0  0  0  0  0  0  0
  -34.9959   -2.5167   11.5296 H   0  0  0  0  0  0  0  0  0  0  0  0
  -34.3781   -3.8797   10.5487 H   0  0  0  0  0  0  0  0  0  0  0  0
  -33.3499   -1.0664   10.7997 H   0  0  0  0  0  0  0  0  0  0  0  0
  -33.4237   -2.0809    9.3338 H   0  0  0  0  0  0  0  0  0  0  0  0
  -31.1139   -1.8639   10.4384 H   0  0  0  0  0  0  0  0  0  0  0  0
  -31.6727   -3.4145   10.2341 H   0  0  0  0  0  0  0  0  0  0  0  0
  -31.0533   -3.3550   12.5294 H   0  0  0  0  0  0  0  0  0  0  0  0
  -31.9545   -1.8230   12.6904 H   0  0  0  0  0  0  0  0  0  0  0  0
  1  2  1  0
  1  5  1  0
  1  6  1  0
  1  7  1  0
  2  3  1  0
  2  8  1  0
  2  9  1  0
  3  4  1  0
  3 10  1  0
  3 11  1  0
  4  5  1  0
  4 12  1  0
  4 13  1  0
  5 14  1  0
  5 15  1  0
M  CHG  1   4   1
M  END
> <intraLJ>
-0.364    

> <intraEL>
9.610     

> <intraDihe>
5.719     

> <interLJ>
0.000     

> <interEJ>
0.000     

> <gridLJ>
-2.741    

> <gridEL>
0.000     

> <totalE>
12.225    

> <LGFE>
-2.741  

> <LE>
-0.548  

> <SMILES>
C1CC[NH2+]C1

> <atom.dprop.GFE>
0.28 -0.034 0.18 -3.5 0.31 0 0 0 0 0 0 0 0 0 0

> <atom.prop.CLASS>
PRPC PRPC PRPC MAMN PRPC NCLA NCLA NCLA NCLA NCLA NCLA NCLA NCLA NCLA NCLA

$$$$
