11_3
     RDKit          3D

 11 11  0  0  0  0  0  0  0  0999 V2000
  -38.2473    3.2168   31.0241 O   0  0  0  0  0  0  0  0  0  0  0  0
  -39.0875    4.2286   30.8302 C   0  0  0  0  0  0  0  0  0  0  0  0
  -39.6402    5.0438   31.9460 C   0  0  0  0  0  0  0  0  0  0  0  0
  -40.4933    6.0048   31.1065 C   0  0  0  0  0  0  0  0  0  0  0  0
  -40.2766    5.5647   29.7238 O   0  0  0  0  0  0  0  0  0  0  0  0
  -39.4251    4.5074   29.6634 N   0  0  0  0  0  0  0  0  0  0  0  0
  -38.0876    2.9111   30.1103 H   0  0  0  0  0  0  0  0  0  0  0  0
  -38.8395    5.5665   32.4467 H   0  0  0  0  0  0  0  0  0  0  0  0
  -40.2566    4.4228   32.5790 H   0  0  0  0  0  0  0  0  0  0  0  0
  -40.1534    7.0336   31.2266 H   0  0  0  0  0  0  0  0  0  0  0  0
  -41.5492    5.9143   31.3638 H   0  0  0  0  0  0  0  0  0  0  0  0
  1  2  1  0
  1  7  1  0
  2  3  1  0
  2  6  2  0
  3  4  1  0
  3  8  1  0
  3  9  1  0
  4  5  1  0
  4 10  1  0
  4 11  1  0
  5  6  1  0
M  END
> <intraLJ>
-0.718    

> <intraEL>
-4.916    

> <intraDihe>
22.322    

> <interLJ>
0.000     

> <interEJ>
0.000     

> <gridLJ>
-2.309    

> <gridEL>
0.000     

> <totalE>
14.380    

> <LGFE>
-2.309  

> <LE>
-0.385  

> <SMILES>
OC1=NOCC1

> <atom.dprop.GFE>
-0.31 -0.14 -0.23 -0.29 -0.62 -0.71 0 0 0 0 0

> <atom.prop.CLASS>
MEOO GEHC PRPC PRPC GENA GENA NCLA NCLA NCLA NCLA NCLA

$$$$
