18
     RDKit          3D

 13 13  0  0  0  0  0  0  0  0999 V2000
  -24.4463  -15.5610   21.7035 O   0  0  0  0  0  0  0  0  0  0  0  0
  -24.7798  -15.2629   23.0712 C   0  0  0  0  0  0  0  0  0  0  0  0
  -24.7071  -16.6077   23.9669 C   0  0  0  0  0  0  0  0  0  0  0  0
  -26.4459  -16.6039   24.0698 S   0  0  0  0  0  0  0  0  0  0  0  0
  -26.8735  -16.4161   25.4142 O   0  0  0  0  0  0  0  0  0  0  0  0
  -27.0238  -17.6365   23.2793 O   0  0  0  0  0  0  0  0  0  0  0  0
  -26.3825  -15.0876   23.2169 C   0  0  0  0  0  0  0  0  0  0  0  0
  -23.4827  -15.6085   21.5781 H   0  0  0  0  0  0  0  0  0  0  0  0
  -24.1998  -14.4316   23.4492 H   0  0  0  0  0  0  0  0  0  0  0  0
  -24.1365  -16.3836   24.8582 H   0  0  0  0  0  0  0  0  0  0  0  0
  -24.2078  -17.3700   23.3835 H   0  0  0  0  0  0  0  0  0  0  0  0
  -26.8011  -15.0160   22.2215 H   0  0  0  0  0  0  0  0  0  0  0  0
  -26.5690  -14.1769   23.7695 H   0  0  0  0  0  0  0  0  0  0  0  0
  1  2  1  0
  1  8  1  0
  2  3  1  0
  2  7  1  0
  2  9  1  0
  3  4  1  0
  3 10  1  0
  3 11  1  0
  4  5  2  0
  4  6  2  0
  4  7  1  0
  7 12  1  0
  7 13  1  0
M  END
> <intraLJ>
0.307     

> <intraEL>
-1.458    

> <intraDihe>
23.153    

> <interLJ>
0.000     

> <interEJ>
0.000     

> <gridLJ>
-2.084    

> <gridEL>
0.000     

> <totalE>
19.918    

> <LGFE>
-2.084  

> <LE>
-0.298  

> <SMILES>
O=S1(=O)CC(O)C1

> <atom.dprop.GFE>
-0.62 -0.31 -0.23 0 -0.31 -0.4 -0.21 0 0 0 0 0 0

> <atom.prop.CLASS>
MEOO PRPC PRPC NCLA GENA GENA PRPC NCLA NCLA NCLA NCLA NCLA NCLA

$$$$
