23_2
     RDKit          3D

 10 10  0  0  0  0  0  0  0  0999 V2000
  -28.7237   14.6990   23.2417 O   0  0  0  0  0  0  0  0  0  0  0  0
  -29.0669   15.2360   24.3222 C   0  0  0  0  0  0  0  0  0  0  0  0
  -29.6897   16.4509   24.2946 N   0  0  0  0  0  0  0  0  0  0  0  0
  -30.0474   17.0091   25.4227 C   0  0  0  0  0  0  0  0  0  0  0  0
  -29.8026   16.3859   26.6367 C   0  0  0  0  0  0  0  0  0  0  0  0
  -29.1673   15.1537   26.6246 C   0  0  0  0  0  0  0  0  0  0  0  0
  -28.8082   14.5914   25.4988 N   0  0  0  0  0  0  0  0  0  0  0  0
  -30.5291   17.9504   25.3856 H   0  0  0  0  0  0  0  0  0  0  0  0
  -30.0912   16.8378   27.5467 H   0  0  0  0  0  0  0  0  0  0  0  0
  -28.9601   14.6427   27.5276 H   0  0  0  0  0  0  0  0  0  0  0  0
  1  2  1  0
  2  3  2  0
  2  7  1  0
  3  4  1  0
  4  5  2  0
  4  8  1  0
  5  6  1  0
  5  9  1  0
  6  7  2  0
  6 10  1  0
M  CHG  1   1  -1
M  END
> <intraLJ>
17.983    

> <intraEL>
-7.943    

> <intraDihe>
0.000     

> <interLJ>
0.000     

> <interEJ>
0.000     

> <gridLJ>
-2.064    

> <gridEL>
0.000     

> <totalE>
7.977     

> <LGFE>
-2.064  

> <LE>
-0.295  

> <SMILES>
[O-]c1ncccn1

> <atom.dprop.GFE>
0 -0.18 -0.53 -0.11 -0.14 -0.098 -1 0 0 0

> <atom.prop.CLASS>
NCLA GEHC GENA BENC BENC BENC GENA NCLA NCLA NCLA

$$$$
