51_1
     RDKit          3D

 12 12  0  0  0  0  0  0  0  0999 V2000
   -6.7098   -7.7236    3.2340 O   0  0  0  0  0  0  0  0  0  0  0  0
   -7.8138   -8.2386    3.2181 C   0  0  0  0  0  0  0  0  0  0  0  0
   -8.3476   -9.3270    4.0909 C   0  0  0  0  0  0  0  0  0  0  0  0
   -9.5384   -9.8292    3.2405 C   0  0  0  0  0  0  0  0  0  0  0  0
  -10.0011   -8.6634    2.4563 N   0  0  0  0  0  0  0  0  0  0  0  0
   -8.7596   -7.8684    2.3598 N   0  0  0  0  0  0  0  0  0  0  0  0
   -8.7116   -8.8798    5.0038 H   0  0  0  0  0  0  0  0  0  0  0  0
   -7.6071  -10.1016    4.2278 H   0  0  0  0  0  0  0  0  0  0  0  0
  -10.3331  -10.2326    3.8711 H   0  0  0  0  0  0  0  0  0  0  0  0
   -9.1908  -10.6024    2.5525 H   0  0  0  0  0  0  0  0  0  0  0  0
  -10.6439   -8.1399    3.0798 H   0  0  0  0  0  0  0  0  0  0  0  0
   -8.5722   -7.1499    1.6390 H   0  0  0  0  0  0  0  0  0  0  0  0
  1  2  2  0
  2  3  1  0
  2  6  1  0
  3  4  1  0
  3  7  1  0
  3  8  1  0
  4  5  1  0
  4  9  1  0
  4 10  1  0
  5  6  1  0
  5 11  1  0
  6 12  1  0
M  END
> <intraLJ>
-0.445    

> <intraEL>
-0.094    

> <intraDihe>
6.248     

> <interLJ>
0.000     

> <interEJ>
0.000     

> <gridLJ>
-3.929    

> <gridEL>
0.000     

> <totalE>
1.780     

> <LGFE>
-3.929  

> <LE>
-0.655  

> <SMILES>
O=C1CCNN1

> <atom.dprop.GFE>
-1.3 -0.28 -0.27 -0.18 -1 -0.84 0 0 0 0 0 0

> <atom.prop.CLASS>
GENA GEHC PRPC PRPC GEND GEND NCLA NCLA NCLA NCLA NCLA NCLA

$$$$
