48_2
     RDKit          3D

 18 17  0  0  1  0  0  0  0  0999 V2000
  -16.9368    7.3019  -13.7757 C   0  0  0  0  0  0  0  0  0  0  0  0
  -17.0674    8.5372  -14.6857 C   0  0  0  0  0  0  0  0  0  0  0  0
  -16.5260    8.3250  -16.1096 C   0  0  0  0  0  0  0  0  0  0  0  0
  -17.3027    7.2490  -16.7809 N   0  0  0  0  0  0  0  0  0  0  0  0
  -15.0035    7.9946  -16.0913 C   0  0  0  0  0  0  0  0  0  0  0  0
  -14.6082    7.0212  -16.7132 O   0  0  0  0  0  0  0  0  0  0  0  0
  -14.1270    8.7528  -15.4457 N   0  0  0  0  0  0  0  0  0  0  0  0
  -17.4368    7.5036  -12.8246 H   0  0  0  0  0  0  0  0  0  0  0  0
  -15.8925    7.0749  -13.5582 H   0  0  0  0  0  0  0  0  0  0  0  0
  -17.4171    6.4338  -14.2320 H   0  0  0  0  0  0  0  0  0  0  0  0
  -16.5547    9.3821  -14.2212 H   0  0  0  0  0  0  0  0  0  0  0  0
  -18.1262    8.7952  -14.7526 H   0  0  0  0  0  0  0  0  0  0  0  0
  -16.6487    9.2600  -16.6602 H   0  0  0  0  0  0  0  0  0  0  0  0
  -17.0451    6.3739  -16.3394 H   0  0  0  0  0  0  0  0  0  0  0  0
  -17.0042    7.1707  -17.7432 H   0  0  0  0  0  0  0  0  0  0  0  0
  -18.2939    7.4138  -16.7088 H   0  0  0  0  0  0  0  0  0  0  0  0
  -13.1594    8.4622  -15.4960 H   0  0  0  0  0  0  0  0  0  0  0  0
  -14.3836    9.5682  -14.9115 H   0  0  0  0  0  0  0  0  0  0  0  0
  1  2  1  0
  1  8  1  0
  1  9  1  0
  1 10  1  0
  2  3  1  0
  2 11  1  0
  2 12  1  0
  3  4  1  0
  3  5  1  0
  3 13  1  0
  4 14  1  0
  4 15  1  0
  4 16  1  0
  5  6  2  0
  5  7  1  0
  7 17  1  0
  7 18  1  0
M  CHG  1   4   1
M  END
> <intraLJ>
0.358     

> <intraEL>
1.543     

> <intraDihe>
0.658     

> <interLJ>
0.000     

> <interEJ>
0.000     

> <gridLJ>
-3.352    

> <gridEL>
0.000     

> <totalE>
-0.793    

> <LGFE>
-3.352  

> <LE>
-0.479  

> <SMILES>
CCC([NH3+])C(N)=O

> <atom.dprop.GFE>
-0.4 -0.46 -0.37 -0.42 0 -1.1 -0.65 0 0 0 0 0 0 0 0 0 0 0

> <atom.prop.CLASS>
PRPC PRPC PRPC MAMN NCLA GENA GEND NCLA NCLA NCLA NCLA NCLA NCLA NCLA NCLA NCLA NCLA NCLA

$$$$
