57_1
     RDKit          3D

 15 15  0  0  0  0  0  0  0  0999 V2000
   22.8801   12.7190  -43.6162 O   0  0  0  0  0  0  0  0  0  0  0  0
   23.0347   12.3460  -42.3770 C   0  0  0  0  0  0  0  0  0  0  0  0
   22.0104   12.2948  -41.7527 O   0  0  0  0  0  0  0  0  0  0  0  0
   24.4247   12.0229  -41.8584 C   0  0  0  0  0  0  0  0  0  0  0  0
   25.0569   10.7667  -42.5226 C   0  0  0  0  0  0  0  0  0  0  0  0
   25.6036   10.4126  -41.1076 C   0  0  0  0  0  0  0  0  0  0  0  0
   24.4196   11.2360  -40.5176 C   0  0  0  0  0  0  0  0  0  0  0  0
   21.9305   12.8460  -43.6511 H   0  0  0  0  0  0  0  0  0  0  0  0
   25.0712   12.8924  -41.8565 H   0  0  0  0  0  0  0  0  0  0  0  0
   25.8241   10.9919  -43.2504 H   0  0  0  0  0  0  0  0  0  0  0  0
   24.3261   10.0494  -42.8736 H   0  0  0  0  0  0  0  0  0  0  0  0
   26.5661   10.8663  -40.9081 H   0  0  0  0  0  0  0  0  0  0  0  0
   25.5680    9.3576  -40.8727 H   0  0  0  0  0  0  0  0  0  0  0  0
   23.5320   10.6339  -40.3707 H   0  0  0  0  0  0  0  0  0  0  0  0
   24.6837   11.8327  -39.6547 H   0  0  0  0  0  0  0  0  0  0  0  0
  1  2  1  0
  1  8  1  0
  2  3  2  0
  2  4  1  0
  4  5  1  0
  4  7  1  0
  4  9  1  0
  5  6  1  0
  5 10  1  0
  5 11  1  0
  6  7  1  0
  6 12  1  0
  6 13  1  0
  7 14  1  0
  7 15  1  0
M  END
> <intraLJ>
-0.766    

> <intraEL>
-1.743    

> <intraDihe>
17.645    

> <interLJ>
0.000     

> <interEJ>
0.000     

> <gridLJ>
-2.073    

> <gridEL>
0.000     

> <totalE>
13.062    

> <LGFE>
-2.073  

> <LE>
-0.296  

> <SMILES>
O=C(O)C1CCC1

> <atom.dprop.GFE>
-0.85 0 -0.89 -0.065 -0.16 -0.15 0.048 0 0 0 0 0 0 0 0

> <atom.prop.CLASS>
MEOO NCLA GENA PRPC PRPC PRPC PRPC NCLA NCLA NCLA NCLA NCLA NCLA NCLA NCLA

$$$$
