71_1
     RDKit          3D

 18 18  0  0  0  0  0  0  0  0999 V2000
   17.3649   15.9096  -34.4147 C   0  0  0  0  0  0  0  0  0  0  0  0
   18.1181   14.8039  -33.6663 C   0  0  0  0  0  0  0  0  0  0  0  0
   17.8123   13.4374  -34.1539 N   0  0  0  0  0  0  0  0  0  0  0  0
   16.4258   13.1702  -34.6234 C   0  0  0  0  0  0  0  0  0  0  0  0
   15.3288   13.7932  -33.7482 C   0  0  0  0  0  0  0  0  0  0  0  0
   15.0181   15.1132  -34.1910 O   0  0  0  0  0  0  0  0  0  0  0  0
   15.9543   16.1259  -33.8442 C   0  0  0  0  0  0  0  0  0  0  0  0
   17.3167   15.6871  -35.4807 H   0  0  0  0  0  0  0  0  0  0  0  0
   17.9195   16.8376  -34.2883 H   0  0  0  0  0  0  0  0  0  0  0  0
   17.8694   14.8769  -32.6060 H   0  0  0  0  0  0  0  0  0  0  0  0
   19.1930   14.9718  -33.7637 H   0  0  0  0  0  0  0  0  0  0  0  0
   18.1006   12.7622  -33.4575 H   0  0  0  0  0  0  0  0  0  0  0  0
   16.2711   12.0923  -34.6871 H   0  0  0  0  0  0  0  0  0  0  0  0
   16.3041   13.5729  -35.6304 H   0  0  0  0  0  0  0  0  0  0  0  0
   15.6205   13.7818  -32.6974 H   0  0  0  0  0  0  0  0  0  0  0  0
   14.4289   13.1890  -33.8616 H   0  0  0  0  0  0  0  0  0  0  0  0
   15.5728   17.0699  -34.2377 H   0  0  0  0  0  0  0  0  0  0  0  0
   16.0067   16.2219  -32.7578 H   0  0  0  0  0  0  0  0  0  0  0  0
  1  2  1  0
  1  7  1  0
  1  8  1  0
  1  9  1  0
  2  3  1  0
  2 10  1  0
  2 11  1  0
  3  4  1  0
  3 12  1  0
  4  5  1  0
  4 13  1  0
  4 14  1  0
  5  6  1  0
  5 15  1  0
  5 16  1  0
  6  7  1  0
  7 17  1  0
  7 18  1  0
M  END
> <intraLJ>
0.655     

> <intraEL>
0.902     

> <intraDihe>
9.506     

> <interLJ>
0.000     

> <interEJ>
0.000     

> <gridLJ>
-3.513    

> <gridEL>
0.000     

> <totalE>
7.550     

> <LGFE>
-3.513  

> <LE>
-0.502  

> <SMILES>
C1CNCCOC1

> <atom.dprop.GFE>
-0.37 -0.29 -0.89 -0.53 -0.42 -0.58 -0.43 0 0 0 0 0 0 0 0 0 0 0

> <atom.prop.CLASS>
PRPC PRPC GEND PRPC PRPC GENA PRPC NCLA NCLA NCLA NCLA NCLA NCLA NCLA NCLA NCLA NCLA NCLA

$$$$
