2_2
     RDKit          3D

 16 16  0  0  0  0  0  0  0  0999 V2000
   22.6661   -2.0951  -10.8710 C   0  0  0  0  0  0  0  0  0  0  0  0
   22.8907   -2.7375  -12.2539 C   0  0  0  0  0  0  0  0  0  0  0  0
   21.6382   -2.9589  -12.9015 O   0  0  0  0  0  0  0  0  0  0  0  0
   20.7360   -3.7798  -12.1591 C   0  0  0  0  0  0  0  0  0  0  0  0
   20.4721   -3.1591  -10.7732 C   0  0  0  0  0  0  0  0  0  0  0  0
   21.7452   -2.9162  -10.0290 N   0  0  0  0  0  0  0  0  0  0  0  0
   22.2285   -1.1068  -11.0375 H   0  0  0  0  0  0  0  0  0  0  0  0
   23.6311   -1.9615  -10.3759 H   0  0  0  0  0  0  0  0  0  0  0  0
   23.4266   -3.6827  -12.1430 H   0  0  0  0  0  0  0  0  0  0  0  0
   23.4980   -2.0686  -12.8674 H   0  0  0  0  0  0  0  0  0  0  0  0
   21.1508   -4.7822  -12.0454 H   0  0  0  0  0  0  0  0  0  0  0  0
   19.7930   -3.8578  -12.7039 H   0  0  0  0  0  0  0  0  0  0  0  0
   19.8097   -3.8173  -10.2061 H   0  0  0  0  0  0  0  0  0  0  0  0
   19.9535   -2.2098  -10.9344 H   0  0  0  0  0  0  0  0  0  0  0  0
   21.5570   -2.4489   -9.1506 H   0  0  0  0  0  0  0  0  0  0  0  0
   22.1861   -3.8069   -9.8359 H   0  0  0  0  0  0  0  0  0  0  0  0
  1  2  1  0
  1  6  1  0
  1  7  1  0
  1  8  1  0
  2  3  1  0
  2  9  1  0
  2 10  1  0
  3  4  1  0
  4  5  1  0
  4 11  1  0
  4 12  1  0
  5  6  1  0
  5 13  1  0
  5 14  1  0
  6 15  1  0
  6 16  1  0
M  CHG  1   6   1
M  END
> <intraLJ>
0.208     

> <intraEL>
4.487     

> <intraDihe>
1.850     

> <interLJ>
0.000     

> <interEJ>
0.000     

> <gridLJ>
-2.118    

> <gridEL>
0.000     

> <totalE>
4.428     

> <LGFE>
-2.118  

> <LE>
-0.353  

> <SMILES>
C1COCC[NH2+]1

> <atom.dprop.GFE>
-0.22 -0.19 -0.5 -0.36 -0.35 -0.5 0 0 0 0 0 0 0 0 0 0

> <atom.prop.CLASS>
PRPC PRPC GENA PRPC PRPC MAMN NCLA NCLA NCLA NCLA NCLA NCLA NCLA NCLA NCLA NCLA

$$$$
