21_2
     RDKit          3D

 17 16  0  0  0  0  0  0  0  0999 V2000
  -13.2847    6.6476   18.3218 C   0  0  0  0  0  0  0  0  0  0  0  0
  -13.8475    7.9907   18.8378 C   0  0  0  0  0  0  0  0  0  0  0  0
  -12.9069    9.1100   18.3451 C   0  0  0  0  0  0  0  0  0  0  0  0
  -13.8333    7.9817   20.3574 C   0  0  0  0  0  0  0  0  0  0  0  0
  -14.9308    8.2095   21.0056 N   0  0  0  0  0  0  0  0  0  0  0  0
  -15.0849    8.2314   22.3096 O   0  0  0  0  0  0  0  0  0  0  0  0
  -12.7478    7.7406   21.0985 N   0  0  0  0  0  0  0  0  0  0  0  0
  -13.3522    6.6473   17.2325 H   0  0  0  0  0  0  0  0  0  0  0  0
  -13.8974    5.8412   18.7264 H   0  0  0  0  0  0  0  0  0  0  0  0
  -12.2447    6.5246   18.6258 H   0  0  0  0  0  0  0  0  0  0  0  0
  -14.8515    8.1475   18.4659 H   0  0  0  0  0  0  0  0  0  0  0  0
  -11.8866    8.9236   18.6840 H   0  0  0  0  0  0  0  0  0  0  0  0
  -13.2689   10.0600   18.7404 H   0  0  0  0  0  0  0  0  0  0  0  0
  -12.9390    9.1310   17.2552 H   0  0  0  0  0  0  0  0  0  0  0  0
  -15.7152    8.3851   20.3527 H   0  0  0  0  0  0  0  0  0  0  0  0
  -12.8606    7.7515   22.1230 H   0  0  0  0  0  0  0  0  0  0  0  0
  -11.8431    7.5357   20.6584 H   0  0  0  0  0  0  0  0  0  0  0  0
  1  2  1  0
  1  8  1  0
  1  9  1  0
  1 10  1  0
  2  3  1  0
  2  4  1  0
  2 11  1  0
  3 12  1  0
  3 13  1  0
  3 14  1  0
  4  5  2  0
  4  7  1  0
  5  6  1  0
  5 15  1  0
  7 16  1  0
  7 17  1  0
M  CHG  2   5   1   6  -1
M  END
> <intraLJ>
4.543     

> <intraEL>
-0.793    

> <intraDihe>
0.560     

> <interLJ>
0.000     

> <interEJ>
0.000     

> <gridLJ>
-2.073    

> <gridEL>
0.000     

> <totalE>
2.237     

> <LGFE>
-2.073  

> <LE>
-0.296  

> <SMILES>
CC(C)C(N)=[NH+][O-]

> <atom.dprop.GFE>
-0.051 0.01 -0.11 -1.9 0 0 0 0 0 0 0 0 0 0 0 0 0

> <atom.prop.CLASS>
PRPC PRPC PRPC MAMC NCLA NCLA NCLA NCLA NCLA NCLA NCLA NCLA NCLA NCLA NCLA NCLA NCLA

$$$$
