11_3
     RDKit          3D

 11 11  0  0  0  0  0  0  0  0999 V2000
   -3.2500    9.1211    6.2881 O   0  0  0  0  0  0  0  0  0  0  0  0
   -3.6682   10.3577    6.5390 C   0  0  0  0  0  0  0  0  0  0  0  0
   -3.0231   11.2381    7.5509 C   0  0  0  0  0  0  0  0  0  0  0  0
   -3.9205   12.4697    7.3660 C   0  0  0  0  0  0  0  0  0  0  0  0
   -4.8747   12.0674    6.3268 O   0  0  0  0  0  0  0  0  0  0  0  0
   -4.6413   10.7993    5.8976 N   0  0  0  0  0  0  0  0  0  0  0  0
   -3.8738    8.8359    5.5927 H   0  0  0  0  0  0  0  0  0  0  0  0
   -2.0059   11.4469    7.2566 H   0  0  0  0  0  0  0  0  0  0  0  0
   -3.1432   10.8093    8.5349 H   0  0  0  0  0  0  0  0  0  0  0  0
   -3.3397   13.3271    7.0254 H   0  0  0  0  0  0  0  0  0  0  0  0
   -4.4530   12.7055    8.2880 H   0  0  0  0  0  0  0  0  0  0  0  0
  1  2  1  0
  1  7  1  0
  2  3  1  0
  2  6  2  0
  3  4  1  0
  3  8  1  0
  3  9  1  0
  4  5  1  0
  4 10  1  0
  4 11  1  0
  5  6  1  0
M  END
> <intraLJ>
-0.718    

> <intraEL>
-4.916    

> <intraDihe>
22.322    

> <interLJ>
0.000     

> <interEJ>
0.000     

> <gridLJ>
-2.816    

> <gridEL>
0.000     

> <totalE>
13.873    

> <LGFE>
-2.816  

> <LE>
-0.469  

> <SMILES>
OC1=NOCC1

> <atom.dprop.GFE>
-0.8 0.21 -0.13 -0.065 -0.88 -1.1 0 0 0 0 0

> <atom.prop.CLASS>
MEOO GEHC PRPC PRPC GENA GENA NCLA NCLA NCLA NCLA NCLA

$$$$
