30_2
     RDKit          3D

 16 16  0  0  1  0  0  0  0  0999 V2000
   20.3377   -2.0148  -13.7365 N   0  0  0  0  0  0  0  0  0  0  0  0
   20.8726   -2.0096  -12.3480 C   0  0  0  0  0  0  0  0  0  0  0  0
   22.4104   -2.0413  -12.3069 C   0  0  0  0  0  0  0  0  0  0  0  0
   22.6995   -2.8459  -11.0234 C   0  0  0  0  0  0  0  0  0  0  0  0
   21.5540   -3.7280  -10.9114 N   0  0  0  0  0  0  0  0  0  0  0  0
   20.5008   -3.2650  -11.5527 C   0  0  0  0  0  0  0  0  0  0  0  0
   19.4277   -3.8361  -11.6721 O   0  0  0  0  0  0  0  0  0  0  0  0
   20.5436   -1.1556  -14.2211 H   0  0  0  0  0  0  0  0  0  0  0  0
   19.3357   -2.1629  -13.6739 H   0  0  0  0  0  0  0  0  0  0  0  0
   20.7127   -2.8112  -14.2328 H   0  0  0  0  0  0  0  0  0  0  0  0
   20.5072   -1.1462  -11.7871 H   0  0  0  0  0  0  0  0  0  0  0  0
   22.8079   -2.5915  -13.1611 H   0  0  0  0  0  0  0  0  0  0  0  0
   22.8406   -1.0407  -12.2561 H   0  0  0  0  0  0  0  0  0  0  0  0
   22.7503   -2.1831  -10.1553 H   0  0  0  0  0  0  0  0  0  0  0  0
   23.6337   -3.4073  -11.1163 H   0  0  0  0  0  0  0  0  0  0  0  0
   21.5287   -4.5744  -10.3556 H   0  0  0  0  0  0  0  0  0  0  0  0
  1  2  1  0
  1  8  1  0
  1  9  1  0
  1 10  1  0
  2  3  1  0
  2  6  1  0
  2 11  1  0
  3  4  1  0
  3 12  1  0
  3 13  1  0
  4  5  1  0
  4 14  1  0
  4 15  1  0
  5  6  1  0
  5 16  1  0
  6  7  2  0
M  CHG  1   1   1
M  END
> <intraLJ>
-0.328    

> <intraEL>
0.050     

> <intraDihe>
6.834     

> <interLJ>
0.000     

> <interEJ>
0.000     

> <gridLJ>
-2.710    

> <gridEL>
0.000     

> <totalE>
3.846     

> <LGFE>
-2.710  

> <LE>
-0.387  

> <SMILES>
[NH3+]C1CCNC1=O

> <atom.dprop.GFE>
-0.92 -0.31 -0.19 -0.22 -0.22 -0.22 -0.64 0 0 0 0 0 0 0 0 0

> <atom.prop.CLASS>
MAMN PRPC PRPC PRPC GEND GEHC GENA NCLA NCLA NCLA NCLA NCLA NCLA NCLA NCLA NCLA

$$$$
