54_1
     RDKit          3D

 11 10  0  0  0  0  0  0  0  0999 V2000
    8.5345   -4.8717    0.5351 C   0  0  0  0  0  0  0  0  0  0  0  0
    7.5644   -4.4500    1.6517 C   0  0  0  0  0  0  0  0  0  0  0  0
    6.8397   -5.6343    2.2837 C   0  0  0  0  0  0  0  0  0  0  0  0
    6.9789   -6.8019    1.9592 O   0  0  0  0  0  0  0  0  0  0  0  0
    5.9908   -5.3227    3.2794 O   0  0  0  0  0  0  0  0  0  0  0  0
    9.0177   -3.9893    0.1137 H   0  0  0  0  0  0  0  0  0  0  0  0
    7.9861   -5.3910   -0.2524 H   0  0  0  0  0  0  0  0  0  0  0  0
    9.2974   -5.5396    0.9409 H   0  0  0  0  0  0  0  0  0  0  0  0
    6.8135   -3.7760    1.2405 H   0  0  0  0  0  0  0  0  0  0  0  0
    8.1163   -3.9212    2.4276 H   0  0  0  0  0  0  0  0  0  0  0  0
    5.6405   -6.1673    3.5607 H   0  0  0  0  0  0  0  0  0  0  0  0
  1  2  1  0
  1  6  1  0
  1  7  1  0
  1  8  1  0
  2  3  1  0
  2  9  1  0
  2 10  1  0
  3  4  2  0
  3  5  1  0
  5 11  1  0
M  END
> <intraLJ>
-0.349    

> <intraEL>
-3.551    

> <intraDihe>
0.002     

> <interLJ>
0.000     

> <interEJ>
0.000     

> <gridLJ>
-3.359    

> <gridEL>
0.000     

> <totalE>
-7.257    

> <LGFE>
-3.359  

> <LE>
-0.672  

> <SMILES>
CCC(=O)O

> <atom.dprop.GFE>
-0.43 -0.6 0 -1.3 -1 0 0 0 0 0 0

> <atom.prop.CLASS>
PRPC PRPC NCLA GENA MEOO NCLA NCLA NCLA NCLA NCLA NCLA

$$$$
