28_2
     RDKit          3D

 10 10  0  0  0  0  0  0  0  0999 V2000
   21.1092    0.0123  -16.8541 C   0  0  0  0  0  0  0  0  0  0  0  0
   22.1710   -0.3255  -16.0893 C   0  0  0  0  0  0  0  0  0  0  0  0
   23.2721    0.2435  -16.6747 N   0  0  0  0  0  0  0  0  0  0  0  0
   22.9099    0.9115  -17.7627 C   0  0  0  0  0  0  0  0  0  0  0  0
   21.5941    0.7773  -17.8828 N   0  0  0  0  0  0  0  0  0  0  0  0
   20.0747   -0.2236  -16.7527 H   0  0  0  0  0  0  0  0  0  0  0  0
   22.2320   -0.9099  -15.1988 H   0  0  0  0  0  0  0  0  0  0  0  0
   24.2550    0.1743  -16.3312 H   0  0  0  0  0  0  0  0  0  0  0  0
   23.5546    1.4541  -18.4193 H   0  0  0  0  0  0  0  0  0  0  0  0
   21.0311    1.1996  -18.6524 H   0  0  0  0  0  0  0  0  0  0  0  0
  1  2  2  0
  1  5  1  0
  1  6  1  0
  2  3  1  0
  2  7  1  0
  3  4  2  0
  3  8  1  0
  4  5  1  0
  4  9  1  0
  5 10  1  0
M  CHG  1   3   1
M  END
> <intraLJ>
-0.306    

> <intraEL>
3.276     

> <intraDihe>
0.000     

> <interLJ>
0.000     

> <interEJ>
0.000     

> <gridLJ>
-2.670    

> <gridEL>
0.000     

> <totalE>
0.301     

> <LGFE>
-2.670  

> <LE>
-0.534  

> <SMILES>
c1c[nH+]c[nH]1

> <atom.dprop.GFE>
-0.13 -0.088 0 -2.4 0 0 0 0 0 0

> <atom.prop.CLASS>
GEHC GEHC NCLA MAMC NCLA NCLA NCLA NCLA NCLA NCLA

$$$$
