66
     RDKit          3D

 11 11  0  0  0  0  0  0  0  0999 V2000
   21.2238   -3.6118  -26.9204 Br  0  0  0  0  0  0  0  0  0  0  0  0
   21.0002   -4.8792  -25.5329 C   0  0  0  0  0  0  0  0  0  0  0  0
   19.8201   -5.6023  -25.4270 C   0  0  0  0  0  0  0  0  0  0  0  0
   19.7061   -6.5203  -24.3918 C   0  0  0  0  0  0  0  0  0  0  0  0
   20.7626   -6.6876  -23.4993 C   0  0  0  0  0  0  0  0  0  0  0  0
   21.8911   -5.9851  -23.6130 N   0  0  0  0  0  0  0  0  0  0  0  0
   22.0181   -5.0982  -24.6044 C   0  0  0  0  0  0  0  0  0  0  0  0
   19.0295   -5.4572  -26.1188 H   0  0  0  0  0  0  0  0  0  0  0  0
   18.8219   -7.0923  -24.2768 H   0  0  0  0  0  0  0  0  0  0  0  0
   20.6876   -7.3850  -22.7039 H   0  0  0  0  0  0  0  0  0  0  0  0
   22.9251   -4.5534  -24.6718 H   0  0  0  0  0  0  0  0  0  0  0  0
  1  2  1  0
  2  3  2  0
  2  7  1  0
  3  4  1  0
  3  8  1  0
  4  5  2  0
  4  9  1  0
  5  6  1  0
  5 10  1  0
  6  7  2  0
  7 11  1  0
M  END
> <intraLJ>
11.953    

> <intraEL>
0.329     

> <intraDihe>
0.000     

> <interLJ>
0.000     

> <interEJ>
0.000     

> <gridLJ>
-2.230    

> <gridEL>
0.000     

> <totalE>
10.052    

> <LGFE>
-2.230  

> <LE>
-0.319  

> <SMILES>
Brc1cccnc1

> <atom.dprop.GFE>
-1.5 0.0028 -0.023 -0.044 -0.14 -0.48 -0.071 0 0 0 0

> <atom.prop.CLASS>
GENA BENC BENC BENC GEHC GENA GEHC NCLA NCLA NCLA NCLA

$$$$
