11_1
     RDKit          3D

 11 11  0  0  0  0  0  0  0  0999 V2000
   23.8638   11.1577  -43.5944 O   0  0  0  0  0  0  0  0  0  0  0  0
   24.5993   10.2204  -43.3591 C   0  0  0  0  0  0  0  0  0  0  0  0
   25.5690   10.0714  -42.2318 C   0  0  0  0  0  0  0  0  0  0  0  0
   25.7827    8.5433  -42.2547 C   0  0  0  0  0  0  0  0  0  0  0  0
   25.4844    8.1413  -43.6331 O   0  0  0  0  0  0  0  0  0  0  0  0
   24.6259    9.1287  -44.1227 N   0  0  0  0  0  0  0  0  0  0  0  0
   25.1330   10.3994  -41.2994 H   0  0  0  0  0  0  0  0  0  0  0  0
   26.4861   10.5691  -42.5081 H   0  0  0  0  0  0  0  0  0  0  0  0
   25.0765    8.0565  -41.5795 H   0  0  0  0  0  0  0  0  0  0  0  0
   26.8063    8.2788  -41.9837 H   0  0  0  0  0  0  0  0  0  0  0  0
   24.0495    9.0160  -44.9703 H   0  0  0  0  0  0  0  0  0  0  0  0
  1  2  2  0
  2  3  1  0
  2  6  1  0
  3  4  1  0
  3  7  1  0
  3  8  1  0
  4  5  1  0
  4  9  1  0
  4 10  1  0
  5  6  1  0
  6 11  1  0
M  END
> <intraLJ>
-0.418    

> <intraEL>
-2.154    

> <intraDihe>
5.561     

> <interLJ>
0.000     

> <interEJ>
0.000     

> <gridLJ>
-2.092    

> <gridEL>
0.000     

> <totalE>
0.897     

> <LGFE>
-2.092  

> <LE>
-0.349  

> <SMILES>
O=C1CCON1

> <atom.dprop.GFE>
-0.57 -0.1 -0.23 -0.27 -0.33 -0.59 0 0 0 0 0

> <atom.prop.CLASS>
GENA GEHC PRPC PRPC GENA GEND NCLA NCLA NCLA NCLA NCLA

$$$$
