23_3
     RDKit          3D

 11 11  0  0  0  0  0  0  0  0999 V2000
   -3.9261   14.6450    0.1223 O   0  0  0  0  0  0  0  0  0  0  0  0
   -3.0306   14.8349   -0.6864 C   0  0  0  0  0  0  0  0  0  0  0  0
   -2.8494   13.8655   -1.6303 N   0  0  0  0  0  0  0  0  0  0  0  0
   -1.8807   13.9489   -2.5995 C   0  0  0  0  0  0  0  0  0  0  0  0
   -1.0883   15.0549   -2.5895 C   0  0  0  0  0  0  0  0  0  0  0  0
   -1.2914   16.0564   -1.5980 C   0  0  0  0  0  0  0  0  0  0  0  0
   -2.2050   15.9538   -0.7023 N   0  0  0  0  0  0  0  0  0  0  0  0
   -3.4946   13.0667   -1.5600 H   0  0  0  0  0  0  0  0  0  0  0  0
   -1.8173   13.1440   -3.2906 H   0  0  0  0  0  0  0  0  0  0  0  0
   -0.3215   15.1868   -3.3060 H   0  0  0  0  0  0  0  0  0  0  0  0
   -0.6715   16.9174   -1.5943 H   0  0  0  0  0  0  0  0  0  0  0  0
  1  2  2  0
  2  3  1  0
  2  7  1  0
  3  4  1  0
  3  8  1  0
  4  5  2  0
  4  9  1  0
  5  6  1  0
  5 10  1  0
  6  7  2  0
  6 11  1  0
M  END
> <intraLJ>
11.692    

> <intraEL>
-4.846    

> <intraDihe>
0.000     

> <interLJ>
0.000     

> <interEJ>
0.000     

> <gridLJ>
-4.109    

> <gridEL>
0.000     

> <totalE>
2.738     

> <LGFE>
-4.109  

> <LE>
-0.587  

> <SMILES>
O=c1nccc[nH]1

> <atom.dprop.GFE>
-0.83 -0.33 -0.94 -0.29 -0.33 -0.27 -1.1 0 0 0 0

> <atom.prop.CLASS>
GENA GEHC GEND BENC BENC BENC GENA NCLA NCLA NCLA NCLA

$$$$
