76_2
     RDKit          3D

 23 22  0  0  0  0  0  0  0  0999 V2000
  -15.3347    8.2095    0.2725 C   0  0  0  0  0  0  0  0  0  0  0  0
  -15.1082    8.6119   -1.1912 C   0  0  0  0  0  0  0  0  0  0  0  0
  -15.6091   10.0515   -1.3857 C   0  0  0  0  0  0  0  0  0  0  0  0
  -15.8253    7.6029   -2.1065 C   0  0  0  0  0  0  0  0  0  0  0  0
  -17.3577    7.6553   -1.9845 C   0  0  0  0  0  0  0  0  0  0  0  0
  -17.9930    6.5730   -2.8541 C   0  0  0  0  0  0  0  0  0  0  0  0
  -19.4655    6.6329   -2.7471 N   0  0  0  0  0  0  0  0  0  0  0  0
  -14.8020    8.8941    0.9336 H   0  0  0  0  0  0  0  0  0  0  0  0
  -14.9562    7.2010    0.4486 H   0  0  0  0  0  0  0  0  0  0  0  0
  -16.3983    8.2383    0.5162 H   0  0  0  0  0  0  0  0  0  0  0  0
  -14.0343    8.5829   -1.3908 H   0  0  0  0  0  0  0  0  0  0  0  0
  -16.6905   10.1001   -1.2479 H   0  0  0  0  0  0  0  0  0  0  0  0
  -15.3516   10.4187   -2.3783 H   0  0  0  0  0  0  0  0  0  0  0  0
  -15.1349   10.7090   -0.6548 H   0  0  0  0  0  0  0  0  0  0  0  0
  -15.4732    6.5961   -1.8687 H   0  0  0  0  0  0  0  0  0  0  0  0
  -15.5451    7.8228   -3.1397 H   0  0  0  0  0  0  0  0  0  0  0  0
  -17.7062    8.6395   -2.3057 H   0  0  0  0  0  0  0  0  0  0  0  0
  -17.6448    7.4955   -0.9435 H   0  0  0  0  0  0  0  0  0  0  0  0
  -17.6268    5.5964   -2.5230 H   0  0  0  0  0  0  0  0  0  0  0  0
  -17.6777    6.7233   -3.8913 H   0  0  0  0  0  0  0  0  0  0  0  0
  -19.7482    6.4934   -1.7864 H   0  0  0  0  0  0  0  0  0  0  0  0
  -19.8896    5.9163   -3.3223 H   0  0  0  0  0  0  0  0  0  0  0  0
  -19.7967    7.5381   -3.0544 H   0  0  0  0  0  0  0  0  0  0  0  0
  1  2  1  0
  1  8  1  0
  1  9  1  0
  1 10  1  0
  2  3  1  0
  2  4  1  0
  2 11  1  0
  3 12  1  0
  3 13  1  0
  3 14  1  0
  4  5  1  0
  4 15  1  0
  4 16  1  0
  5  6  1  0
  5 17  1  0
  5 18  1  0
  6  7  1  0
  6 19  1  0
  6 20  1  0
  7 21  1  0
  7 22  1  0
  7 23  1  0
M  CHG  1   7   1
M  END
> <intraLJ>
1.206     

> <intraEL>
1.770     

> <intraDihe>
0.190     

> <interLJ>
0.000     

> <interEJ>
0.000     

> <gridLJ>
-3.050    

> <gridEL>
0.000     

> <totalE>
0.115     

> <LGFE>
-3.050  

> <LE>
-0.436  

> <SMILES>
CC(C)CCC[NH3+]

> <atom.dprop.GFE>
-0.3 -0.42 -0.12 -0.57 -0.51 -0.58 -0.55 0 0 0 0 0 0 0 0 0 0 0 0 0 0 0 0

> <atom.prop.CLASS>
PRPC PRPC PRPC PRPC PRPC PRPC MAMN NCLA NCLA NCLA NCLA NCLA NCLA NCLA NCLA NCLA NCLA NCLA NCLA NCLA NCLA NCLA NCLA

$$$$
