4
     RDKit          3D

 13 13  0  0  0  0  0  0  0  0999 V2000
   18.0306   -1.5334  -36.1670 O   0  0  0  0  0  0  0  0  0  0  0  0
   17.7520   -2.6766  -35.3373 C   0  0  0  0  0  0  0  0  0  0  0  0
   17.8139   -2.1262  -33.9039 C   0  0  0  0  0  0  0  0  0  0  0  0
   16.9809   -2.8431  -32.8823 C   0  0  0  0  0  0  0  0  0  0  0  0
   16.5582   -1.4843  -33.3920 C   0  0  0  0  0  0  0  0  0  0  0  0
   18.0418   -1.7847  -37.1046 H   0  0  0  0  0  0  0  0  0  0  0  0
   18.5135   -3.4313  -35.4819 H   0  0  0  0  0  0  0  0  0  0  0  0
   16.7490   -3.0348  -35.5323 H   0  0  0  0  0  0  0  0  0  0  0  0
   18.7711   -1.7226  -33.5994 H   0  0  0  0  0  0  0  0  0  0  0  0
   17.3866   -2.8841  -31.8798 H   0  0  0  0  0  0  0  0  0  0  0  0
   16.4109   -3.6975  -33.2242 H   0  0  0  0  0  0  0  0  0  0  0  0
   15.7024   -1.4610  -34.0534 H   0  0  0  0  0  0  0  0  0  0  0  0
   16.6858   -0.6534  -32.7096 H   0  0  0  0  0  0  0  0  0  0  0  0
  1  2  1  0
  1  6  1  0
  2  3  1  0
  2  7  1  0
  2  8  1  0
  3  4  1  0
  3  5  1  0
  3  9  1  0
  4  5  1  0
  4 10  1  0
  4 11  1  0
  5 12  1  0
  5 13  1  0
M  END
> <intraLJ>
-0.230    

> <intraEL>
1.555     

> <intraDihe>
2.184     

> <interLJ>
0.000     

> <interEJ>
0.000     

> <gridLJ>
-2.950    

> <gridEL>
0.000     

> <totalE>
0.560     

> <LGFE>
-2.950  

> <LE>
-0.590  

> <SMILES>
OCC1CC1

> <atom.dprop.GFE>
-1.1 -0.42 -0.49 -0.42 -0.49 0 0 0 0 0 0 0 0

> <atom.prop.CLASS>
MEOO PRPC PRPC PRPC PRPC NCLA NCLA NCLA NCLA NCLA NCLA NCLA NCLA

$$$$
