21_1
     RDKit          3D

 17 16  0  0  0  0  0  0  0  0999 V2000
   20.7603   -7.1841  -25.7377 C   0  0  0  0  0  0  0  0  0  0  0  0
   19.9006   -5.9248  -25.9713 C   0  0  0  0  0  0  0  0  0  0  0  0
   18.5525   -6.3748  -26.5821 C   0  0  0  0  0  0  0  0  0  0  0  0
   20.6440   -4.9979  -26.9339 C   0  0  0  0  0  0  0  0  0  0  0  0
   20.9923   -3.8072  -26.6599 N   0  0  0  0  0  0  0  0  0  0  0  0
   21.7178   -3.0889  -27.5808 O   0  0  0  0  0  0  0  0  0  0  0  0
   20.8831   -5.4971  -28.1990 N   0  0  0  0  0  0  0  0  0  0  0  0
   20.2279   -7.8551  -25.0627 H   0  0  0  0  0  0  0  0  0  0  0  0
   21.7094   -6.8832  -25.2932 H   0  0  0  0  0  0  0  0  0  0  0  0
   20.9375   -7.6745  -26.6978 H   0  0  0  0  0  0  0  0  0  0  0  0
   19.7175   -5.4142  -25.0354 H   0  0  0  0  0  0  0  0  0  0  0  0
   18.7377   -6.9310  -27.5032 H   0  0  0  0  0  0  0  0  0  0  0  0
   17.9616   -5.4843  -26.7997 H   0  0  0  0  0  0  0  0  0  0  0  0
   18.0308   -7.0035  -25.8600 H   0  0  0  0  0  0  0  0  0  0  0  0
   22.1375   -3.7492  -28.1719 H   0  0  0  0  0  0  0  0  0  0  0  0
   20.7434   -4.7700  -28.9121 H   0  0  0  0  0  0  0  0  0  0  0  0
   20.3649   -6.3621  -28.3942 H   0  0  0  0  0  0  0  0  0  0  0  0
  1  2  1  0
  1  8  1  0
  1  9  1  0
  1 10  1  0
  2  3  1  0
  2  4  1  0
  2 11  1  0
  3 12  1  0
  3 13  1  0
  3 14  1  0
  4  5  2  0
  4  7  1  0
  5  6  1  0
  6 15  1  0
  7 16  1  0
  7 17  1  0
M  END
> <intraLJ>
7.548     

> <intraEL>
0.137     

> <intraDihe>
5.064     

> <interLJ>
0.000     

> <interEJ>
0.000     

> <gridLJ>
-3.765    

> <gridEL>
0.000     

> <totalE>
8.984     

> <LGFE>
-3.765  

> <LE>
-0.538  

> <SMILES>
CC(C)C(N)=NO

> <atom.dprop.GFE>
-0.1 -0.17 -0.3 0 -1.5 -1.3 -0.44 0 0 0 0 0 0 0 0 0 0

> <atom.prop.CLASS>
PRPC PRPC PRPC NCLA GENA MEOO GEND NCLA NCLA NCLA NCLA NCLA NCLA NCLA NCLA NCLA NCLA

$$$$
