40_1
     RDKit          3D

 11 11  0  0  0  0  0  0  0  0999 V2000
  -18.6373    7.0778   -3.5954 O   0  0  0  0  0  0  0  0  0  0  0  0
  -17.4541    7.0534   -2.9133 C   0  0  0  0  0  0  0  0  0  0  0  0
  -16.4580    7.9470   -3.2792 C   0  0  0  0  0  0  0  0  0  0  0  0
  -15.2707    7.9012   -2.5741 C   0  0  0  0  0  0  0  0  0  0  0  0
  -15.0885    7.0239   -1.5707 N   0  0  0  0  0  0  0  0  0  0  0  0
  -16.0496    6.1688   -1.2240 N   0  0  0  0  0  0  0  0  0  0  0  0
  -17.2230    6.1659   -1.8708 C   0  0  0  0  0  0  0  0  0  0  0  0
  -19.2776    6.4159   -3.2696 H   0  0  0  0  0  0  0  0  0  0  0  0
  -16.6085    8.6344   -4.0701 H   0  0  0  0  0  0  0  0  0  0  0  0
  -14.4725    8.5587   -2.8081 H   0  0  0  0  0  0  0  0  0  0  0  0
  -17.9600    5.4706   -1.5653 H   0  0  0  0  0  0  0  0  0  0  0  0
  1  2  1  0
  1  8  1  0
  2  3  2  0
  2  7  1  0
  3  4  1  0
  3  9  1  0
  4  5  2  0
  4 10  1  0
  5  6  1  0
  6  7  2  0
  7 11  1  0
M  END
> <intraLJ>
16.086    

> <intraEL>
2.571     

> <intraDihe>
0.000     

> <interLJ>
0.000     

> <interEJ>
0.000     

> <gridLJ>
-5.754    

> <gridEL>
0.000     

> <totalE>
12.903    

> <LGFE>
-5.754  

> <LE>
-0.822  

> <SMILES>
Oc1ccnnc1

> <atom.dprop.GFE>
-0.66 -0.29 -0.25 -0.28 -2 -2 -0.24 0 0 0 0

> <atom.prop.CLASS>
MEOO BENC BENC BENC GENA GENA BENC NCLA NCLA NCLA NCLA

$$$$
