14_1
     RDKit          3D

 18 18  0  0  1  0  0  0  0  0999 V2000
  -25.6966    7.2454   10.4541 C   0  0  0  0  0  0  0  0  0  0  0  0
  -25.0052    7.8454   11.6046 N   0  0  0  0  0  0  0  0  0  0  0  0
  -25.7651    7.6625   12.8527 C   0  0  0  0  0  0  0  0  0  0  0  0
  -24.6855    7.5828   13.9522 C   0  0  0  0  0  0  0  0  0  0  0  0
  -23.3601    7.7507   13.2147 C   0  0  0  0  0  0  0  0  0  0  0  0
  -23.0830    9.1280   13.1014 O   0  0  0  0  0  0  0  0  0  0  0  0
  -23.6813    7.2419   11.8093 C   0  0  0  0  0  0  0  0  0  0  0  0
  -26.6584    7.7338   10.3584 H   0  0  0  0  0  0  0  0  0  0  0  0
  -25.8142    6.1839   10.6300 H   0  0  0  0  0  0  0  0  0  0  0  0
  -25.0935    7.4296    9.5755 H   0  0  0  0  0  0  0  0  0  0  0  0
  -26.3976    8.5262   13.0193 H   0  0  0  0  0  0  0  0  0  0  0  0
  -26.3137    6.7289   12.8381 H   0  0  0  0  0  0  0  0  0  0  0  0
  -24.7194    6.6028   14.4273 H   0  0  0  0  0  0  0  0  0  0  0  0
  -24.8194    8.3663   14.6982 H   0  0  0  0  0  0  0  0  0  0  0  0
  -22.5423    7.2288   13.7151 H   0  0  0  0  0  0  0  0  0  0  0  0
  -23.7589    9.4344   12.4818 H   0  0  0  0  0  0  0  0  0  0  0  0
  -23.7515    6.1624   11.8335 H   0  0  0  0  0  0  0  0  0  0  0  0
  -22.9609    7.6218   11.0960 H   0  0  0  0  0  0  0  0  0  0  0  0
  1  2  1  0
  1  8  1  0
  1  9  1  0
  1 10  1  0
  2  3  1  0
  2  7  1  0
  3  4  1  0
  3 11  1  0
  3 12  1  0
  4  5  1  0
  4 13  1  0
  4 14  1  0
  5  6  1  0
  5  7  1  0
  5 15  1  0
  6 16  1  0
  7 17  1  0
  7 18  1  0
M  END
> <intraLJ>
3.504     

> <intraEL>
0.090     

> <intraDihe>
11.625    

> <interLJ>
0.000     

> <interEJ>
0.000     

> <gridLJ>
-3.701    

> <gridEL>
0.000     

> <totalE>
11.518    

> <LGFE>
-3.701  

> <LE>
-0.529  

> <SMILES>
CN1CCC(O)C1

> <atom.dprop.GFE>
-0.36 -0.3 -0.49 -0.53 -0.59 -0.86 -0.56 0 0 0 0 0 0 0 0 0 0 0

> <atom.prop.CLASS>
PRPC GEND PRPC PRPC PRPC MEOO PRPC NCLA NCLA NCLA NCLA NCLA NCLA NCLA NCLA NCLA NCLA NCLA

$$$$
