51_2
     RDKit          3D

 12 12  0  0  0  0  0  0  0  0999 V2000
  -16.9075    1.0281  -20.6679 O   0  0  0  0  0  0  0  0  0  0  0  0
  -16.0743    0.3983  -21.5026 C   0  0  0  0  0  0  0  0  0  0  0  0
  -15.3505    1.0666  -22.6227 C   0  0  0  0  0  0  0  0  0  0  0  0
  -14.8606   -0.1985  -23.3508 C   0  0  0  0  0  0  0  0  0  0  0  0
  -14.9855   -1.2346  -22.3148 N   0  0  0  0  0  0  0  0  0  0  0  0
  -15.8885   -0.8308  -21.3506 N   0  0  0  0  0  0  0  0  0  0  0  0
  -17.1709    0.2956  -20.0797 H   0  0  0  0  0  0  0  0  0  0  0  0
  -14.5170    1.6184  -22.2127 H   0  0  0  0  0  0  0  0  0  0  0  0
  -16.0330    1.6362  -23.2345 H   0  0  0  0  0  0  0  0  0  0  0  0
  -13.8279   -0.0920  -23.6889 H   0  0  0  0  0  0  0  0  0  0  0  0
  -15.5224   -0.4318  -24.1871 H   0  0  0  0  0  0  0  0  0  0  0  0
  -15.0636   -2.2217  -22.6251 H   0  0  0  0  0  0  0  0  0  0  0  0
  1  2  1  0
  1  7  1  0
  2  3  1  0
  2  6  2  0
  3  4  1  0
  3  8  1  0
  3  9  1  0
  4  5  1  0
  4 10  1  0
  4 11  1  0
  5  6  1  0
  5 12  1  0
M  END
> <intraLJ>
-0.691    

> <intraEL>
-4.206    

> <intraDihe>
21.287    

> <interLJ>
0.000     

> <interEJ>
0.000     

> <gridLJ>
-2.070    

> <gridEL>
0.000     

> <totalE>
14.320    

> <LGFE>
-2.070  

> <LE>
-0.345  

> <SMILES>
OC1=NNCC1

> <atom.dprop.GFE>
-0.72 -0.019 -0.11 0.0057 -0.23 -1 0 0 0 0 0 0

> <atom.prop.CLASS>
MEOO GEHC PRPC PRPC GEND GENA NCLA NCLA NCLA NCLA NCLA NCLA

$$$$
