27_1
     RDKit          3D

 11 11  0  0  0  0  0  0  0  0999 V2000
   -9.9359  -13.2069    3.2678 N   0  0  0  0  0  0  0  0  0  0  0  0
   -9.4954  -13.8699    2.1486 C   0  0  0  0  0  0  0  0  0  0  0  0
   -8.2838  -13.8179    1.6937 N   0  0  0  0  0  0  0  0  0  0  0  0
   -8.3103  -14.6195    0.5849 C   0  0  0  0  0  0  0  0  0  0  0  0
   -9.5438  -15.1427    0.3906 C   0  0  0  0  0  0  0  0  0  0  0  0
  -10.3027  -14.6544    1.3976 N   0  0  0  0  0  0  0  0  0  0  0  0
  -10.6349  -13.7100    3.8257 H   0  0  0  0  0  0  0  0  0  0  0  0
   -9.1364  -12.8561    3.8140 H   0  0  0  0  0  0  0  0  0  0  0  0
   -7.4670  -14.7987   -0.0340 H   0  0  0  0  0  0  0  0  0  0  0  0
   -9.9128  -15.7911   -0.3613 H   0  0  0  0  0  0  0  0  0  0  0  0
  -11.3046  -14.8101    1.5744 H   0  0  0  0  0  0  0  0  0  0  0  0
  1  2  1  0
  1  7  1  0
  1  8  1  0
  2  3  2  0
  2  6  1  0
  3  4  1  0
  4  5  2  0
  4  9  1  0
  5  6  1  0
  5 10  1  0
  6 11  1  0
M  END
> <intraLJ>
-0.193    

> <intraEL>
-10.326   

> <intraDihe>
2.842     

> <interLJ>
0.000     

> <interEJ>
0.000     

> <gridLJ>
-2.062    

> <gridEL>
0.000     

> <totalE>
-9.738    

> <LGFE>
-2.062  

> <LE>
-0.344  

> <SMILES>
Nc1ncc[nH]1

> <atom.dprop.GFE>
-0.74 -0.09 -0.6 -0.079 -0.088 -0.47 0 0 0 0 0

> <atom.prop.CLASS>
GEND GEHC GENA GEHC GEHC GEND NCLA NCLA NCLA NCLA NCLA

$$$$
