8
     RDKit          3D

  9  9  0  0  0  0  0  0  0  0999 V2000
  -21.9177    8.3678    9.9367 N   0  0  0  0  0  0  0  0  0  0  0  0
  -22.5591    8.1561   10.8609 C   0  0  0  0  0  0  0  0  0  0  0  0
  -23.3515    7.9044   12.0400 C   0  0  0  0  0  0  0  0  0  0  0  0
  -23.1040    8.4081   13.3150 C   0  0  0  0  0  0  0  0  0  0  0  0
  -24.0796    7.9231   14.0947 C   0  0  0  0  0  0  0  0  0  0  0  0
  -24.8705    7.1698   13.3324 O   0  0  0  0  0  0  0  0  0  0  0  0
  -24.4181    7.1634   12.0737 N   0  0  0  0  0  0  0  0  0  0  0  0
  -22.3105    9.0427   13.6131 H   0  0  0  0  0  0  0  0  0  0  0  0
  -24.2803    8.0490   15.1291 H   0  0  0  0  0  0  0  0  0  0  0  0
  1  2  3  0
  2  3  1  0
  3  4  1  0
  3  7  2  0
  4  5  2  0
  4  8  1  0
  5  6  1  0
  5  9  1  0
  6  7  1  0
M  END
> <intraLJ>
-0.818    

> <intraEL>
1.724     

> <intraDihe>
0.000     

> <interLJ>
0.000     

> <interEJ>
0.000     

> <gridLJ>
-3.402    

> <gridEL>
0.000     

> <totalE>
-2.496    

> <LGFE>
-3.402  

> <LE>
-0.486  

> <SMILES>
N#Cc1ccon1

> <atom.dprop.GFE>
-0.54 0 -0.24 -0.25 -0.22 -1.1 -1.1 0 0

> <atom.prop.CLASS>
GENA NCLA GEHC GEHC GEHC GENA GENA NCLA NCLA

$$$$
