58
     RDKit          3D

 12 12  0  0  0  0  0  0  0  0999 V2000
   -2.4667   11.6393    8.3823 O   0  0  0  0  0  0  0  0  0  0  0  0
   -1.4139   12.2456    8.3289 C   0  0  0  0  0  0  0  0  0  0  0  0
   -1.0537   13.0957    7.3615 N   0  0  0  0  0  0  0  0  0  0  0  0
    0.3328   13.5206    7.4991 C   0  0  0  0  0  0  0  0  0  0  0  0
    0.6206   13.1497    8.9670 C   0  0  0  0  0  0  0  0  0  0  0  0
   -0.4267   12.1719    9.2275 N   0  0  0  0  0  0  0  0  0  0  0  0
   -1.5599   13.0251    6.4709 H   0  0  0  0  0  0  0  0  0  0  0  0
    0.4530   14.5922    7.3319 H   0  0  0  0  0  0  0  0  0  0  0  0
    0.9734   12.9406    6.8339 H   0  0  0  0  0  0  0  0  0  0  0  0
    0.4893   14.0243    9.6068 H   0  0  0  0  0  0  0  0  0  0  0  0
    1.6187   12.7230    9.0771 H   0  0  0  0  0  0  0  0  0  0  0  0
   -0.6722   11.8093   10.1555 H   0  0  0  0  0  0  0  0  0  0  0  0
  1  2  2  0
  2  3  1  0
  2  6  1  0
  3  4  1  0
  3  7  1  0
  4  5  1  0
  4  8  1  0
  4  9  1  0
  5  6  1  0
  5 10  1  0
  5 11  1  0
  6 12  1  0
M  END
> <intraLJ>
-0.226    

> <intraEL>
-6.154    

> <intraDihe>
4.218     

> <interLJ>
0.000     

> <interEJ>
0.000     

> <gridLJ>
-2.379    

> <gridEL>
0.000     

> <totalE>
-4.541    

> <LGFE>
-2.379  

> <LE>
-0.397  

> <SMILES>
O=C1NCCN1

> <atom.dprop.GFE>
-0.19 -0.15 -0.79 -0.32 -0.33 -0.61 0 0 0 0 0 0

> <atom.prop.CLASS>
GENA GEHC GEND PRPC PRPC GEND NCLA NCLA NCLA NCLA NCLA NCLA

$$$$
