59_1
     RDKit          3D

 10  9  0  0  0  0  0  0  0  0999 V2000
  -17.3524   -4.3242   27.3224 C   0  0  0  0  0  0  0  0  0  0  0  0
  -17.8815   -3.6336   26.0841 C   0  0  0  0  0  0  0  0  0  0  0  0
  -17.5930   -2.4627   25.9233 O   0  0  0  0  0  0  0  0  0  0  0  0
  -18.7156   -4.3865   25.1243 C   0  0  0  0  0  0  0  0  0  0  0  0
  -19.0995   -3.9608   24.0517 O   0  0  0  0  0  0  0  0  0  0  0  0
  -19.1300   -5.6213   25.3472 O   0  0  0  0  0  0  0  0  0  0  0  0
  -16.7461   -5.1534   26.9853 H   0  0  0  0  0  0  0  0  0  0  0  0
  -18.2111   -4.6738   27.8795 H   0  0  0  0  0  0  0  0  0  0  0  0
  -16.7737   -3.6033   27.8830 H   0  0  0  0  0  0  0  0  0  0  0  0
  -19.6382   -5.8028   24.5343 H   0  0  0  0  0  0  0  0  0  0  0  0
  1  2  1  0
  1  7  1  0
  1  8  1  0
  1  9  1  0
  2  3  2  0
  2  4  1  0
  4  5  2  0
  4  6  1  0
  6 10  1  0
M  END
> <intraLJ>
-0.396    

> <intraEL>
-0.000    

> <intraDihe>
2.127     

> <interLJ>
0.000     

> <interEJ>
0.000     

> <gridLJ>
-3.655    

> <gridEL>
0.000     

> <totalE>
-1.924    

> <LGFE>
-3.655  

> <LE>
-0.609  

> <SMILES>
CC(=O)C(=O)O

> <atom.dprop.GFE>
-0.15 0 -0.76 0 -1.6 -1.1 0 0 0 0

> <atom.prop.CLASS>
PRPC NCLA GENA NCLA GENA MEOO NCLA NCLA NCLA NCLA

$$$$
