34
     RDKit          3D

 19 19  0  0  0  0  0  0  0  0999 V2000
   -7.0637   10.1197   -7.7923 O   0  0  0  0  0  0  0  0  0  0  0  0
   -7.3160   10.5610   -9.1054 C   0  0  0  0  0  0  0  0  0  0  0  0
   -8.7731   11.0269   -9.2009 C   0  0  0  0  0  0  0  0  0  0  0  0
   -9.1387   11.4115  -10.6444 C   0  0  0  0  0  0  0  0  0  0  0  0
   -8.8637   10.2483  -11.6086 C   0  0  0  0  0  0  0  0  0  0  0  0
   -7.4041    9.7793  -11.5117 C   0  0  0  0  0  0  0  0  0  0  0  0
   -7.0484    9.3986  -10.0664 C   0  0  0  0  0  0  0  0  0  0  0  0
   -7.2302   10.8444   -7.1860 H   0  0  0  0  0  0  0  0  0  0  0  0
   -6.6499   11.3906   -9.3533 H   0  0  0  0  0  0  0  0  0  0  0  0
   -8.9228   11.8893   -8.5506 H   0  0  0  0  0  0  0  0  0  0  0  0
   -9.4268   10.2198   -8.8680 H   0  0  0  0  0  0  0  0  0  0  0  0
   -8.5482   12.2786  -10.9487 H   0  0  0  0  0  0  0  0  0  0  0  0
  -10.1948   11.6794  -10.6918 H   0  0  0  0  0  0  0  0  0  0  0  0
   -9.0763   10.5661  -12.6310 H   0  0  0  0  0  0  0  0  0  0  0  0
   -9.5253    9.4149  -11.3646 H   0  0  0  0  0  0  0  0  0  0  0  0
   -6.7426   10.5800  -11.8492 H   0  0  0  0  0  0  0  0  0  0  0  0
   -7.2571    8.9140  -12.1603 H   0  0  0  0  0  0  0  0  0  0  0  0
   -7.6467    8.5390   -9.7594 H   0  0  0  0  0  0  0  0  0  0  0  0
   -5.9946    9.1245  -10.0096 H   0  0  0  0  0  0  0  0  0  0  0  0
  1  2  1  0
  1  8  1  0
  2  3  1  0
  2  7  1  0
  2  9  1  0
  3  4  1  0
  3 10  1  0
  3 11  1  0
  4  5  1  0
  4 12  1  0
  4 13  1  0
  5  6  1  0
  5 14  1  0
  5 15  1  0
  6  7  1  0
  6 16  1  0
  6 17  1  0
  7 18  1  0
  7 19  1  0
M  END
> <intraLJ>
-0.471    

> <intraEL>
-1.198    

> <intraDihe>
8.631     

> <interLJ>
0.000     

> <interEJ>
0.000     

> <gridLJ>
-3.133    

> <gridEL>
0.000     

> <totalE>
3.829     

> <LGFE>
-3.133  

> <LE>
-0.448  

> <SMILES>
OC1CCCCC1

> <atom.dprop.GFE>
-0.97 -0.43 -0.29 -0.28 -0.4 -0.37 -0.39 0 0 0 0 0 0 0 0 0 0 0 0

> <atom.prop.CLASS>
MEOO PRPC PRPC PRPC PRPC PRPC PRPC NCLA NCLA NCLA NCLA NCLA NCLA NCLA NCLA NCLA NCLA NCLA NCLA

$$$$
