29_1
     RDKit          3D

 12 12  0  0  0  0  0  0  0  0999 V2000
   22.8451    9.3859   -1.5216 N   0  0  0  0  0  0  0  0  0  0  0  0
   23.0030   10.7037   -1.1117 C   0  0  0  0  0  0  0  0  0  0  0  0
   23.8835   11.5861   -1.6459 C   0  0  0  0  0  0  0  0  0  0  0  0
   23.7389   13.1052   -0.8571 S   0  0  0  0  0  0  0  0  0  0  0  0
   22.5035   12.3814    0.1108 C   0  0  0  0  0  0  0  0  0  0  0  0
   21.8571   13.1097    1.0754 N   0  0  0  0  0  0  0  0  0  0  0  0
   22.2028   11.1396   -0.1150 N   0  0  0  0  0  0  0  0  0  0  0  0
   21.9452    9.0573   -1.1468 H   0  0  0  0  0  0  0  0  0  0  0  0
   22.8746    9.3224   -2.5452 H   0  0  0  0  0  0  0  0  0  0  0  0
   24.5786   11.4110   -2.4225 H   0  0  0  0  0  0  0  0  0  0  0  0
   20.9523   12.6844    1.3096 H   0  0  0  0  0  0  0  0  0  0  0  0
   21.8339   14.1164    0.8763 H   0  0  0  0  0  0  0  0  0  0  0  0
  1  2  1  0
  1  8  1  0
  1  9  1  0
  2  3  2  0
  2  7  1  0
  3  4  1  0
  3 10  1  0
  4  5  1  0
  5  6  1  0
  5  7  2  0
  6 11  1  0
  6 12  1  0
M  END
> <intraLJ>
-0.273    

> <intraEL>
-13.389   

> <intraDihe>
3.347     

> <interLJ>
0.000     

> <interEJ>
0.000     

> <gridLJ>
-2.156    

> <gridEL>
0.000     

> <totalE>
-12.472   

> <LGFE>
-2.156  

> <LE>
-0.308  

> <SMILES>
Nc1csc(N)n1

> <atom.dprop.GFE>
-0.47 -0.15 -0.2 -0.12 -0.16 -0.46 -0.61 0 0 0 0 0

> <atom.prop.CLASS>
GEND GEHC GEHC PRPC GEHC GEND GENA NCLA NCLA NCLA NCLA NCLA

$$$$
