73
     RDKit          3D

 13 13  0  0  0  0  0  0  0  0999 V2000
  -24.2693   -4.7048   31.3677 O   0  0  0  0  0  0  0  0  0  0  0  0
  -25.3862   -4.2464   31.1882 C   0  0  0  0  0  0  0  0  0  0  0  0
  -26.6506   -4.7513   31.8439 C   0  0  0  0  0  0  0  0  0  0  0  0
  -27.6453   -3.5977   31.6154 C   0  0  0  0  0  0  0  0  0  0  0  0
  -27.0798   -2.9187   30.3599 C   0  0  0  0  0  0  0  0  0  0  0  0
  -25.6618   -3.2012   30.4356 N   0  0  0  0  0  0  0  0  0  0  0  0
  -26.4881   -4.9361   32.9043 H   0  0  0  0  0  0  0  0  0  0  0  0
  -26.9798   -5.6519   31.3277 H   0  0  0  0  0  0  0  0  0  0  0  0
  -27.5984   -2.9018   32.4551 H   0  0  0  0  0  0  0  0  0  0  0  0
  -28.6648   -3.9560   31.4626 H   0  0  0  0  0  0  0  0  0  0  0  0
  -27.2806   -1.8449   30.3740 H   0  0  0  0  0  0  0  0  0  0  0  0
  -27.5034   -3.3737   29.4606 H   0  0  0  0  0  0  0  0  0  0  0  0
  -24.9465   -2.7194   29.9156 H   0  0  0  0  0  0  0  0  0  0  0  0
  1  2  2  0
  2  3  1  0
  2  6  1  0
  3  4  1  0
  3  7  1  0
  3  8  1  0
  4  5  1  0
  4  9  1  0
  4 10  1  0
  5  6  1  0
  5 11  1  0
  5 12  1  0
  6 13  1  0
M  END
> <intraLJ>
-0.403    

> <intraEL>
-2.564    

> <intraDihe>
6.839     

> <interLJ>
0.000     

> <interEJ>
0.000     

> <gridLJ>
-2.205    

> <gridEL>
0.000     

> <totalE>
1.666     

> <LGFE>
-2.205  

> <LE>
-0.368  

> <SMILES>
O=C1CCCN1

> <atom.dprop.GFE>
-0.68 -0.21 -0.28 -0.26 -0.31 -0.46 0 0 0 0 0 0 0

> <atom.prop.CLASS>
GENA GEHC PRPC PRPC PRPC GEND NCLA NCLA NCLA NCLA NCLA NCLA NCLA

$$$$
