68_1
     RDKit          3D

 17 16  0  0  1  0  0  0  0  0999 V2000
   18.2417   15.1953   -3.7286 C   0  0  0  0  0  0  0  0  0  0  0  0
   18.5094   15.3911   -5.2160 C   0  0  0  0  0  0  0  0  0  0  0  0
   19.9318   15.1210   -5.4661 N   0  0  0  0  0  0  0  0  0  0  0  0
   18.1248   16.8107   -5.6435 C   0  0  0  0  0  0  0  0  0  0  0  0
   16.6391   17.0728   -5.4628 C   0  0  0  0  0  0  0  0  0  0  0  0
   16.2304   17.8400   -4.6093 O   0  0  0  0  0  0  0  0  0  0  0  0
   15.7788   16.4468   -6.2431 N   0  0  0  0  0  0  0  0  0  0  0  0
   17.1809   15.3390   -3.5193 H   0  0  0  0  0  0  0  0  0  0  0  0
   18.8279   15.9032   -3.1419 H   0  0  0  0  0  0  0  0  0  0  0  0
   18.5211   14.1810   -3.4444 H   0  0  0  0  0  0  0  0  0  0  0  0
   17.8991   14.6769   -5.7772 H   0  0  0  0  0  0  0  0  0  0  0  0
   20.5154   15.7432   -4.9272 H   0  0  0  0  0  0  0  0  0  0  0  0
   20.1344   15.1958   -6.4553 H   0  0  0  0  0  0  0  0  0  0  0  0
   18.4064   16.9771   -6.6818 H   0  0  0  0  0  0  0  0  0  0  0  0
   18.6600   17.5276   -5.0224 H   0  0  0  0  0  0  0  0  0  0  0  0
   14.8049   16.6516   -6.0925 H   0  0  0  0  0  0  0  0  0  0  0  0
   16.0938   15.8134   -6.9555 H   0  0  0  0  0  0  0  0  0  0  0  0
  1  2  1  0
  1  8  1  0
  1  9  1  0
  1 10  1  0
  2  3  1  0
  2  4  1  0
  2 11  1  0
  3 12  1  0
  3 13  1  0
  4  5  1  0
  4 14  1  0
  4 15  1  0
  5  6  2  0
  5  7  1  0
  7 16  1  0
  7 17  1  0
M  END
> <intraLJ>
1.213     

> <intraEL>
-12.178   

> <intraDihe>
0.869     

> <interLJ>
0.000     

> <interEJ>
0.000     

> <gridLJ>
-3.024    

> <gridEL>
0.000     

> <totalE>
-13.121   

> <LGFE>
-3.024  

> <LE>
-0.432  

> <SMILES>
CC(N)CC(N)=O

> <atom.dprop.GFE>
-0.58 -0.59 -0.36 -0.48 0 -0.47 -0.55 0 0 0 0 0 0 0 0 0 0

> <atom.prop.CLASS>
PRPC PRPC GEND PRPC NCLA GENA GEND NCLA NCLA NCLA NCLA NCLA NCLA NCLA NCLA NCLA NCLA

$$$$
