20_1
     RDKit          3D

 17 17  0  0  0  0  0  0  0  0999 V2000
   17.2687    9.9265  -45.9650 N   0  0  0  0  0  0  0  0  0  0  0  0
   16.8625   11.1741  -46.6215 C   0  0  0  0  0  0  0  0  0  0  0  0
   17.0973   12.3810  -45.7283 C   0  0  0  0  0  0  0  0  0  0  0  0
   16.2020   13.4676  -46.3318 C   0  0  0  0  0  0  0  0  0  0  0  0
   15.0486   12.7186  -47.0137 C   0  0  0  0  0  0  0  0  0  0  0  0
   15.3587   11.2279  -46.8439 C   0  0  0  0  0  0  0  0  0  0  0  0
   18.2613    9.9440  -45.7809 H   0  0  0  0  0  0  0  0  0  0  0  0
   17.0466    9.1392  -46.5581 H   0  0  0  0  0  0  0  0  0  0  0  0
   17.3821   11.3117  -47.5734 H   0  0  0  0  0  0  0  0  0  0  0  0
   18.1464   12.6771  -45.7238 H   0  0  0  0  0  0  0  0  0  0  0  0
   16.7652   12.1524  -44.7138 H   0  0  0  0  0  0  0  0  0  0  0  0
   16.7617   14.0334  -47.0788 H   0  0  0  0  0  0  0  0  0  0  0  0
   15.8343   14.1407  -45.5559 H   0  0  0  0  0  0  0  0  0  0  0  0
   15.0191   12.9774  -48.0738 H   0  0  0  0  0  0  0  0  0  0  0  0
   14.0923   12.9634  -46.5480 H   0  0  0  0  0  0  0  0  0  0  0  0
   14.8488   10.8471  -45.9573 H   0  0  0  0  0  0  0  0  0  0  0  0
   15.0652   10.6505  -47.7210 H   0  0  0  0  0  0  0  0  0  0  0  0
  1  2  1  0
  1  7  1  0
  1  8  1  0
  2  3  1  0
  2  6  1  0
  2  9  1  0
  3  4  1  0
  3 10  1  0
  3 11  1  0
  4  5  1  0
  4 12  1  0
  4 13  1  0
  5  6  1  0
  5 14  1  0
  5 15  1  0
  6 16  1  0
  6 17  1  0
M  END
> <intraLJ>
0.465     

> <intraEL>
-1.894    

> <intraDihe>
13.208    

> <interLJ>
0.000     

> <interEJ>
0.000     

> <gridLJ>
-2.014    

> <gridEL>
0.000     

> <totalE>
9.764     

> <LGFE>
-2.014  

> <LE>
-0.336  

> <SMILES>
NC1CCCC1

> <atom.dprop.GFE>
-0.67 -0.26 -0.35 -0.29 -0.22 -0.22 0 0 0 0 0 0 0 0 0 0 0

> <atom.prop.CLASS>
GEND PRPC PRPC PRPC PRPC PRPC NCLA NCLA NCLA NCLA NCLA NCLA NCLA NCLA NCLA NCLA NCLA

$$$$
