22
     RDKit          3D

 12 12  0  0  0  0  0  0  0  0999 V2000
   18.9070   -1.6020  -36.3126 O   0  0  0  0  0  0  0  0  0  0  0  0
   18.0246   -1.8174  -35.2155 S   0  0  0  0  0  0  0  0  0  0  0  0
   16.9752   -0.8900  -34.9561 O   0  0  0  0  0  0  0  0  0  0  0  0
   17.4484   -3.4603  -35.1725 C   0  0  0  0  0  0  0  0  0  0  0  0
   18.3036   -3.7238  -33.8196 C   0  0  0  0  0  0  0  0  0  0  0  0
   18.8981   -2.2152  -33.7633 C   0  0  0  0  0  0  0  0  0  0  0  0
   17.7928   -4.1576  -35.9239 H   0  0  0  0  0  0  0  0  0  0  0  0
   16.4072   -3.6468  -34.9493 H   0  0  0  0  0  0  0  0  0  0  0  0
   19.0786   -4.4650  -33.9608 H   0  0  0  0  0  0  0  0  0  0  0  0
   17.6709   -3.9469  -32.9713 H   0  0  0  0  0  0  0  0  0  0  0  0
   18.5904   -1.7708  -32.8252 H   0  0  0  0  0  0  0  0  0  0  0  0
   19.9773   -2.2814  -33.7993 H   0  0  0  0  0  0  0  0  0  0  0  0
  1  2  2  0
  2  3  2  0
  2  4  1  0
  2  6  1  0
  4  5  1  0
  4  7  1  0
  4  8  1  0
  5  6  1  0
  5  9  1  0
  5 10  1  0
  6 11  1  0
  6 12  1  0
M  END
> <intraLJ>
-0.830    

> <intraEL>
0.015     

> <intraDihe>
20.344    

> <interLJ>
0.000     

> <interEJ>
0.000     

> <gridLJ>
-3.124    

> <gridEL>
0.000     

> <totalE>
16.405    

> <LGFE>
-3.124  

> <LE>
-0.521  

> <SMILES>
O=S1(=O)CCC1

> <atom.dprop.GFE>
-1.4 0 -0.7 -0.28 -0.36 -0.41 0 0 0 0 0 0

> <atom.prop.CLASS>
GENA NCLA GENA PRPC PRPC PRPC NCLA NCLA NCLA NCLA NCLA NCLA

$$$$
