15_2
     RDKit          3D

 14 14  0  0  0  0  0  0  0  0999 V2000
  -13.0224    6.9158   18.2963 N   0  0  0  0  0  0  0  0  0  0  0  0
  -12.9977    8.2535   18.2396 C   0  0  0  0  0  0  0  0  0  0  0  0
  -12.7064    8.9899   17.0732 C   0  0  0  0  0  0  0  0  0  0  0  0
  -12.7096   10.3628   17.1270 C   0  0  0  0  0  0  0  0  0  0  0  0
  -13.0043   11.0033   18.3472 C   0  0  0  0  0  0  0  0  0  0  0  0
  -13.2861   10.2558   19.4697 C   0  0  0  0  0  0  0  0  0  0  0  0
  -13.2754    8.8888   19.3868 N   0  0  0  0  0  0  0  0  0  0  0  0
  -13.2349    6.3710   19.1478 H   0  0  0  0  0  0  0  0  0  0  0  0
  -12.8155    6.3673   17.4404 H   0  0  0  0  0  0  0  0  0  0  0  0
  -12.4886    8.4743   16.1725 H   0  0  0  0  0  0  0  0  0  0  0  0
  -12.4923   10.9417   16.2610 H   0  0  0  0  0  0  0  0  0  0  0  0
  -13.0077   12.0638   18.3926 H   0  0  0  0  0  0  0  0  0  0  0  0
  -13.5176   10.6574   20.4260 H   0  0  0  0  0  0  0  0  0  0  0  0
  -13.4831    8.3128   20.2149 H   0  0  0  0  0  0  0  0  0  0  0  0
  1  2  1  0
  1  8  1  0
  1  9  1  0
  2  3  2  0
  2  7  1  0
  3  4  1  0
  3 10  1  0
  4  5  2  0
  4 11  1  0
  5  6  1  0
  5 12  1  0
  6  7  2  0
  6 13  1  0
  7 14  1  0
M  CHG  1   7   1
M  END
> <intraLJ>
8.433     

> <intraEL>
1.228     

> <intraDihe>
0.000     

> <interLJ>
0.000     

> <interEJ>
0.000     

> <gridLJ>
-2.372    

> <gridEL>
0.000     

> <totalE>
7.289     

> <LGFE>
-2.372  

> <LE>
-0.339  

> <SMILES>
Nc1cccc[nH+]1

> <atom.dprop.GFE>
-0.82 -0.056 -0.069 0.042 0.055 0.096 -1.6 0 0 0 0 0 0 0

> <atom.prop.CLASS>
GEND BENC BENC BENC BENC BENC MAMN NCLA NCLA NCLA NCLA NCLA NCLA NCLA

$$$$
