27_2
     RDKit          3D

 12 12  0  0  0  0  0  0  0  0999 V2000
   23.8785    6.3854   -7.4829 N   0  0  0  0  0  0  0  0  0  0  0  0
   24.8778    6.9520   -8.1160 C   0  0  0  0  0  0  0  0  0  0  0  0
   24.7721    7.9238   -8.9930 N   0  0  0  0  0  0  0  0  0  0  0  0
   26.0362    8.2584   -9.4452 C   0  0  0  0  0  0  0  0  0  0  0  0
   26.9023    7.4467   -8.8038 C   0  0  0  0  0  0  0  0  0  0  0  0
   26.1449    6.6367   -7.9756 N   0  0  0  0  0  0  0  0  0  0  0  0
   24.0542    5.6284   -6.8116 H   0  0  0  0  0  0  0  0  0  0  0  0
   22.9154    6.6961   -7.6546 H   0  0  0  0  0  0  0  0  0  0  0  0
   23.8737    8.3425   -9.2707 H   0  0  0  0  0  0  0  0  0  0  0  0
   26.2142    9.0215  -10.1631 H   0  0  0  0  0  0  0  0  0  0  0  0
   27.9608    7.3837   -8.8692 H   0  0  0  0  0  0  0  0  0  0  0  0
   26.4791    5.8994   -7.3408 H   0  0  0  0  0  0  0  0  0  0  0  0
  1  2  2  0
  1  7  1  0
  1  8  1  0
  2  3  1  0
  2  6  1  0
  3  4  1  0
  3  9  1  0
  4  5  2  0
  4 10  1  0
  5  6  1  0
  5 11  1  0
  6 12  1  0
M  CHG  1   1   1
M  END
> <intraLJ>
-0.384    

> <intraEL>
3.349     

> <intraDihe>
0.000     

> <interLJ>
0.000     

> <interEJ>
0.000     

> <gridLJ>
-2.433    

> <gridEL>
0.000     

> <totalE>
0.532     

> <LGFE>
-2.433  

> <LE>
-0.406  

> <SMILES>
[NH2+]=c1[nH]cc[nH]1

> <atom.dprop.GFE>
-1.2 -0.95 0 -0.15 -0.13 0 0 0 0 0 0 0

> <atom.prop.CLASS>
MAMN MAMC NCLA GEHC GEHC NCLA NCLA NCLA NCLA NCLA NCLA NCLA

$$$$
