50_2
     RDKit          3D

 13 12  0  0  1  0  0  0  0  0999 V2000
    0.8050   13.2654    9.0965 C   0  0  0  0  0  0  0  0  0  0  0  0
   -0.1498   12.3087    8.3790 C   0  0  0  0  0  0  0  0  0  0  0  0
   -0.8987   13.1014    7.4504 N   0  0  0  0  0  0  0  0  0  0  0  0
   -1.1661   11.8560    9.3422 C   0  0  0  0  0  0  0  0  0  0  0  0
   -1.9899   11.4910   10.1249 C   0  0  0  0  0  0  0  0  0  0  0  0
    1.3353   12.6941    9.8617 H   0  0  0  0  0  0  0  0  0  0  0  0
    0.2507   14.0778    9.5697 H   0  0  0  0  0  0  0  0  0  0  0  0
    1.5272   13.6554    8.3778 H   0  0  0  0  0  0  0  0  0  0  0  0
    0.3732   11.4747    7.9206 H   0  0  0  0  0  0  0  0  0  0  0  0
   -1.3690   13.8023    8.0015 H   0  0  0  0  0  0  0  0  0  0  0  0
   -1.5822   12.4882    7.0314 H   0  0  0  0  0  0  0  0  0  0  0  0
   -0.2689   13.5032    6.7759 H   0  0  0  0  0  0  0  0  0  0  0  0
   -2.7094   11.1701   10.8024 H   0  0  0  0  0  0  0  0  0  0  0  0
  1  2  1  0
  1  6  1  0
  1  7  1  0
  1  8  1  0
  2  3  1  0
  2  4  1  0
  2  9  1  0
  3 10  1  0
  3 11  1  0
  3 12  1  0
  4  5  3  0
  5 13  1  0
M  CHG  1   3   1
M  END
> <intraLJ>
0.428     

> <intraEL>
-0.040    

> <intraDihe>
0.051     

> <interLJ>
0.000     

> <interEJ>
0.000     

> <gridLJ>
-2.608    

> <gridEL>
0.000     

> <totalE>
-2.168    

> <LGFE>
-2.608  

> <LE>
-0.522  

> <SMILES>
C#CC(C)[NH3+]

> <atom.dprop.GFE>
-0.33 -0.37 -1.4 -0.3 -0.23 0 0 0 0 0 0 0 0

> <atom.prop.CLASS>
PRPC PRPC MAMN PRPC PRPC NCLA NCLA NCLA NCLA NCLA NCLA NCLA NCLA

$$$$
