28_1
     RDKit          3D

  9  9  0  0  0  0  0  0  0  0999 V2000
  -35.9018    7.4639   14.5399 C   0  0  0  0  0  0  0  0  0  0  0  0
  -36.2327    6.1721   14.7657 C   0  0  0  0  0  0  0  0  0  0  0  0
  -37.2022    6.2059   15.6958 N   0  0  0  0  0  0  0  0  0  0  0  0
  -37.4295    7.5023   16.0045 C   0  0  0  0  0  0  0  0  0  0  0  0
  -36.6555    8.2899   15.3184 N   0  0  0  0  0  0  0  0  0  0  0  0
  -35.1638    7.8056   13.8583 H   0  0  0  0  0  0  0  0  0  0  0  0
  -35.8595    5.2740   14.3468 H   0  0  0  0  0  0  0  0  0  0  0  0
  -37.6932    5.3956   16.1080 H   0  0  0  0  0  0  0  0  0  0  0  0
  -38.1620    7.7733   16.7228 H   0  0  0  0  0  0  0  0  0  0  0  0
  1  2  2  0
  1  5  1  0
  1  6  1  0
  2  3  1  0
  2  7  1  0
  3  4  1  0
  3  8  1  0
  4  5  2  0
  4  9  1  0
M  END
> <intraLJ>
-0.307    

> <intraEL>
-0.294    

> <intraDihe>
0.000     

> <interLJ>
0.000     

> <interEJ>
0.000     

> <gridLJ>
-2.468    

> <gridEL>
0.000     

> <totalE>
-3.069    

> <LGFE>
-2.468  

> <LE>
-0.494  

> <SMILES>
c1c[nH]cn1

> <atom.dprop.GFE>
-0.25 -0.2 -0.98 -0.25 -0.79 0 0 0 0

> <atom.prop.CLASS>
GEHC GEHC GEND GEHC GENA NCLA NCLA NCLA NCLA

$$$$
