71_2
     RDKit          3D

 19 19  0  0  0  0  0  0  0  0999 V2000
   21.4130   11.2569   -0.2972 C   0  0  0  0  0  0  0  0  0  0  0  0
   22.5793   10.3068   -0.5614 C   0  0  0  0  0  0  0  0  0  0  0  0
   22.6073    9.1264    0.3435 N   0  0  0  0  0  0  0  0  0  0  0  0
   22.3127    9.4053    1.7824 C   0  0  0  0  0  0  0  0  0  0  0  0
   22.8762   10.7322    2.3088 C   0  0  0  0  0  0  0  0  0  0  0  0
   21.9093   11.7497    2.0715 O   0  0  0  0  0  0  0  0  0  0  0  0
   21.8090   12.2962    0.7631 C   0  0  0  0  0  0  0  0  0  0  0  0
   20.5138   10.7194    0.0058 H   0  0  0  0  0  0  0  0  0  0  0  0
   21.1938   11.7946   -1.2209 H   0  0  0  0  0  0  0  0  0  0  0  0
   23.4973   10.8884   -0.4319 H   0  0  0  0  0  0  0  0  0  0  0  0
   22.5509    9.9735   -1.6035 H   0  0  0  0  0  0  0  0  0  0  0  0
   23.5212    8.6985    0.2611 H   0  0  0  0  0  0  0  0  0  0  0  0
   21.9280    8.4444    0.0252 H   0  0  0  0  0  0  0  0  0  0  0  0
   22.6619    8.5798    2.4087 H   0  0  0  0  0  0  0  0  0  0  0  0
   21.2308    9.4811    1.9192 H   0  0  0  0  0  0  0  0  0  0  0  0
   23.8444   10.9713    1.8670 H   0  0  0  0  0  0  0  0  0  0  0  0
   23.0027   10.6411    3.3893 H   0  0  0  0  0  0  0  0  0  0  0  0
   21.0389   13.0706    0.7870 H   0  0  0  0  0  0  0  0  0  0  0  0
   22.7477   12.7813    0.4875 H   0  0  0  0  0  0  0  0  0  0  0  0
  1  2  1  0
  1  7  1  0
  1  8  1  0
  1  9  1  0
  2  3  1  0
  2 10  1  0
  2 11  1  0
  3  4  1  0
  3 12  1  0
  3 13  1  0
  4  5  1  0
  4 14  1  0
  4 15  1  0
  5  6  1  0
  5 16  1  0
  5 17  1  0
  6  7  1  0
  7 18  1  0
  7 19  1  0
M  CHG  1   3   1
M  END
> <intraLJ>
1.159     

> <intraEL>
4.103     

> <intraDihe>
11.900    

> <interLJ>
0.000     

> <interEJ>
0.000     

> <gridLJ>
-2.087    

> <gridEL>
0.000     

> <totalE>
15.075    

> <LGFE>
-2.087  

> <LE>
-0.298  

> <SMILES>
C1C[NH2+]CCOC1

> <atom.dprop.GFE>
-0.21 -0.21 -0.44 -0.2 -0.21 -0.57 -0.24 0 0 0 0 0 0 0 0 0 0 0 0

> <atom.prop.CLASS>
PRPC PRPC MAMN PRPC PRPC GENA PRPC NCLA NCLA NCLA NCLA NCLA NCLA NCLA NCLA NCLA NCLA NCLA NCLA

$$$$
