57_1
     RDKit          3D

 15 15  0  0  0  0  0  0  0  0999 V2000
   13.6237   16.1269  -29.5877 O   0  0  0  0  0  0  0  0  0  0  0  0
   14.4863   16.3419  -28.6347 C   0  0  0  0  0  0  0  0  0  0  0  0
   14.0303   16.9208  -27.6868 O   0  0  0  0  0  0  0  0  0  0  0  0
   15.9184   15.8640  -28.7968 C   0  0  0  0  0  0  0  0  0  0  0  0
   16.9031   16.5010  -27.7752 C   0  0  0  0  0  0  0  0  0  0  0  0
   17.9200   16.5823  -28.9523 C   0  0  0  0  0  0  0  0  0  0  0  0
   16.6976   16.6069  -29.9183 C   0  0  0  0  0  0  0  0  0  0  0  0
   12.8355   16.5238  -29.2129 H   0  0  0  0  0  0  0  0  0  0  0  0
   15.9833   14.7840  -28.8563 H   0  0  0  0  0  0  0  0  0  0  0  0
   17.2015   15.8356  -26.9770 H   0  0  0  0  0  0  0  0  0  0  0  0
   16.5939   17.4789  -27.4291 H   0  0  0  0  0  0  0  0  0  0  0  0
   18.5121   15.6817  -29.0534 H   0  0  0  0  0  0  0  0  0  0  0  0
   18.5097   17.4887  -28.9633 H   0  0  0  0  0  0  0  0  0  0  0  0
   16.3393   17.6115  -30.1038 H   0  0  0  0  0  0  0  0  0  0  0  0
   16.8356   16.0250  -30.8197 H   0  0  0  0  0  0  0  0  0  0  0  0
  1  2  1  0
  1  8  1  0
  2  3  2  0
  2  4  1  0
  4  5  1  0
  4  7  1  0
  4  9  1  0
  5  6  1  0
  5 10  1  0
  5 11  1  0
  6  7  1  0
  6 12  1  0
  6 13  1  0
  7 14  1  0
  7 15  1  0
M  END
> <intraLJ>
-0.761    

> <intraEL>
-1.745    

> <intraDihe>
17.645    

> <interLJ>
0.000     

> <interEJ>
0.000     

> <gridLJ>
-2.397    

> <gridEL>
0.000     

> <totalE>
12.742    

> <LGFE>
-2.397  

> <LE>
-0.342  

> <SMILES>
O=C(O)C1CCC1

> <atom.dprop.GFE>
-0.84 0 -0.86 -0.26 -0.21 -0.058 -0.17 0 0 0 0 0 0 0 0

> <atom.prop.CLASS>
MEOO NCLA GENA PRPC PRPC PRPC PRPC NCLA NCLA NCLA NCLA NCLA NCLA NCLA NCLA

$$$$
