72_2
     RDKit          3D

 15 15  0  0  0  0  0  0  0  0999 V2000
   -0.8590   13.0923    7.4821 N   0  0  0  0  0  0  0  0  0  0  0  0
   -0.9728   12.1935    8.6179 C   0  0  0  0  0  0  0  0  0  0  0  0
    0.3599   12.4101    9.3409 C   0  0  0  0  0  0  0  0  0  0  0  0
    0.3438   12.2409   10.8337 C   0  0  0  0  0  0  0  0  0  0  0  0
    0.4293   13.6212   10.2233 C   0  0  0  0  0  0  0  0  0  0  0  0
   -1.6534   12.9675    6.8714 H   0  0  0  0  0  0  0  0  0  0  0  0
    0.0080   12.8650    7.0147 H   0  0  0  0  0  0  0  0  0  0  0  0
   -0.8102   14.0366    7.8348 H   0  0  0  0  0  0  0  0  0  0  0  0
   -1.0355   11.1618    8.2875 H   0  0  0  0  0  0  0  0  0  0  0  0
   -1.7919   12.4821    9.2694 H   0  0  0  0  0  0  0  0  0  0  0  0
    1.2538   12.1377    8.7914 H   0  0  0  0  0  0  0  0  0  0  0  0
    1.2535   11.8740   11.2969 H   0  0  0  0  0  0  0  0  0  0  0  0
   -0.5918   12.0083   11.3277 H   0  0  0  0  0  0  0  0  0  0  0  0
   -0.4530   14.2435   10.3115 H   0  0  0  0  0  0  0  0  0  0  0  0
    1.3905   14.1175   10.2962 H   0  0  0  0  0  0  0  0  0  0  0  0
  1  2  1  0
  1  6  1  0
  1  7  1  0
  1  8  1  0
  2  3  1  0
  2  9  1  0
  2 10  1  0
  3  4  1  0
  3  5  1  0
  3 11  1  0
  4  5  1  0
  4 12  1  0
  4 13  1  0
  5 14  1  0
  5 15  1  0
M  CHG  1   1   1
M  END
> <intraLJ>
-0.075    

> <intraEL>
2.870     

> <intraDihe>
2.473     

> <interLJ>
0.000     

> <interEJ>
0.000     

> <gridLJ>
-2.527    

> <gridEL>
0.000     

> <totalE>
2.741     

> <LGFE>
-2.527  

> <LE>
-0.505  

> <SMILES>
[NH3+]CC1CC1

> <atom.dprop.GFE>
-1.4 -0.37 -0.3 -0.22 -0.25 0 0 0 0 0 0 0 0 0 0

> <atom.prop.CLASS>
MAMN PRPC PRPC PRPC PRPC NCLA NCLA NCLA NCLA NCLA NCLA NCLA NCLA NCLA NCLA

$$$$
