30_1
     RDKit          3D

 15 15  0  0  1  0  0  0  0  0999 V2000
  -15.7131    2.7020   22.4252 N   0  0  0  0  0  0  0  0  0  0  0  0
  -15.9106    1.5300   21.5305 C   0  0  0  0  0  0  0  0  0  0  0  0
  -17.0504    0.6460   22.0562 C   0  0  0  0  0  0  0  0  0  0  0  0
  -16.6418   -0.7629   21.5965 C   0  0  0  0  0  0  0  0  0  0  0  0
  -15.1955   -0.7063   21.5429 N   0  0  0  0  0  0  0  0  0  0  0  0
  -14.7409    0.5309   21.4593 C   0  0  0  0  0  0  0  0  0  0  0  0
  -13.5571    0.8270   21.3491 O   0  0  0  0  0  0  0  0  0  0  0  0
  -16.2954    3.4731   22.1317 H   0  0  0  0  0  0  0  0  0  0  0  0
  -14.7362    2.9716   22.3744 H   0  0  0  0  0  0  0  0  0  0  0  0
  -16.1319    1.8269   20.5038 H   0  0  0  0  0  0  0  0  0  0  0  0
  -17.0588    0.6773   23.1462 H   0  0  0  0  0  0  0  0  0  0  0  0
  -18.0165    0.9464   21.6537 H   0  0  0  0  0  0  0  0  0  0  0  0
  -17.0448   -0.9685   20.6021 H   0  0  0  0  0  0  0  0  0  0  0  0
  -16.9891   -1.5161   22.3081 H   0  0  0  0  0  0  0  0  0  0  0  0
  -14.5796   -1.5043   21.5351 H   0  0  0  0  0  0  0  0  0  0  0  0
  1  2  1  0
  1  8  1  0
  1  9  1  0
  2  3  1  0
  2  6  1  0
  2 10  1  0
  3  4  1  0
  3 11  1  0
  3 12  1  0
  4  5  1  0
  4 13  1  0
  4 14  1  0
  5  6  1  0
  5 15  1  0
  6  7  2  0
M  END
> <intraLJ>
0.264     

> <intraEL>
2.285     

> <intraDihe>
8.139     

> <interLJ>
0.000     

> <interEJ>
0.000     

> <gridLJ>
-3.269    

> <gridEL>
0.000     

> <totalE>
7.420     

> <LGFE>
-3.269  

> <LE>
-0.467  

> <SMILES>
NC1CCNC1=O

> <atom.dprop.GFE>
-0.12 -0.38 -0.58 -0.52 -0.6 -0.12 -0.95 0 0 0 0 0 0 0 0

> <atom.prop.CLASS>
GEND PRPC PRPC PRPC GEND GEHC GENA NCLA NCLA NCLA NCLA NCLA NCLA NCLA NCLA

$$$$
