60_2
     RDKit          3D

 14 14  0  0  0  0  0  0  0  0999 V2000
  -26.5419   14.1099   18.4970 N   0  0  0  0  0  0  0  0  0  0  0  0
  -25.6090   13.2193   18.8691 C   0  0  0  0  0  0  0  0  0  0  0  0
  -25.1035   13.2421   20.1747 C   0  0  0  0  0  0  0  0  0  0  0  0
  -24.1460   12.3211   20.5393 C   0  0  0  0  0  0  0  0  0  0  0  0
  -23.7087   11.4068   19.6262 N   0  0  0  0  0  0  0  0  0  0  0  0
  -24.1867   11.3640   18.3481 C   0  0  0  0  0  0  0  0  0  0  0  0
  -25.1446   12.2705   17.9502 C   0  0  0  0  0  0  0  0  0  0  0  0
  -26.9330   14.1168   17.5391 H   0  0  0  0  0  0  0  0  0  0  0  0
  -26.9030   14.8236   19.1552 H   0  0  0  0  0  0  0  0  0  0  0  0
  -25.4600   13.9635   20.8646 H   0  0  0  0  0  0  0  0  0  0  0  0
  -23.7017   12.2580   21.5043 H   0  0  0  0  0  0  0  0  0  0  0  0
  -22.9874   10.7181   19.9134 H   0  0  0  0  0  0  0  0  0  0  0  0
  -23.7717   10.6074   17.7265 H   0  0  0  0  0  0  0  0  0  0  0  0
  -25.5318   12.2590   16.9639 H   0  0  0  0  0  0  0  0  0  0  0  0
  1  2  1  0
  1  8  1  0
  1  9  1  0
  2  3  2  0
  2  7  1  0
  3  4  1  0
  3 10  1  0
  4  5  2  0
  4 11  1  0
  5  6  1  0
  5 12  1  0
  6  7  2  0
  6 13  1  0
  7 14  1  0
M  CHG  1   5   1
M  END
> <intraLJ>
8.489     

> <intraEL>
2.031     

> <intraDihe>
0.000     

> <interLJ>
0.000     

> <interEJ>
0.000     

> <gridLJ>
-2.637    

> <gridEL>
0.000     

> <totalE>
7.884     

> <LGFE>
-2.637  

> <LE>
-0.377  

> <SMILES>
Nc1cc[nH+]cc1

> <atom.dprop.GFE>
-0.44 -0.074 -0.041 0.15 -2.4 0.18 -0.004 0 0 0 0 0 0 0

> <atom.prop.CLASS>
GEND BENC BENC BENC MAMN BENC BENC NCLA NCLA NCLA NCLA NCLA NCLA NCLA

$$$$
