48_2
     RDKit          3D

 18 17  0  0  1  0  0  0  0  0999 V2000
    4.9340   -4.8420    6.5691 C   0  0  0  0  0  0  0  0  0  0  0  0
    4.6341   -3.3609    6.8654 C   0  0  0  0  0  0  0  0  0  0  0  0
    4.1245   -3.0994    8.2928 C   0  0  0  0  0  0  0  0  0  0  0  0
    2.8830   -3.8835    8.5281 N   0  0  0  0  0  0  0  0  0  0  0  0
    3.8869   -1.5792    8.5378 C   0  0  0  0  0  0  0  0  0  0  0  0
    2.9211   -1.2373    9.2017 O   0  0  0  0  0  0  0  0  0  0  0  0
    4.7152   -0.6538    8.0715 N   0  0  0  0  0  0  0  0  0  0  0  0
    5.3870   -4.9239    5.5774 H   0  0  0  0  0  0  0  0  0  0  0  0
    4.0227   -5.4410    6.5664 H   0  0  0  0  0  0  0  0  0  0  0  0
    5.6404   -5.2459    7.2973 H   0  0  0  0  0  0  0  0  0  0  0  0
    3.9045   -2.9900    6.1425 H   0  0  0  0  0  0  0  0  0  0  0  0
    5.5560   -2.7950    6.7176 H   0  0  0  0  0  0  0  0  0  0  0  0
    4.8979   -3.4240    8.9921 H   0  0  0  0  0  0  0  0  0  0  0  0
    2.1493   -3.4556    7.9752 H   0  0  0  0  0  0  0  0  0  0  0  0
    2.5983   -3.7790    9.4922 H   0  0  0  0  0  0  0  0  0  0  0  0
    3.0083   -4.8512    8.2778 H   0  0  0  0  0  0  0  0  0  0  0  0
    4.4818    0.3067    8.2867 H   0  0  0  0  0  0  0  0  0  0  0  0
    5.5291   -0.8647    7.5155 H   0  0  0  0  0  0  0  0  0  0  0  0
  1  2  1  0
  1  8  1  0
  1  9  1  0
  1 10  1  0
  2  3  1  0
  2 11  1  0
  2 12  1  0
  3  4  1  0
  3  5  1  0
  3 13  1  0
  4 14  1  0
  4 15  1  0
  4 16  1  0
  5  6  2  0
  5  7  1  0
  7 17  1  0
  7 18  1  0
M  CHG  1   4   1
M  END
> <intraLJ>
0.433     

> <intraEL>
1.650     

> <intraDihe>
0.478     

> <interLJ>
0.000     

> <interEJ>
0.000     

> <gridLJ>
-2.551    

> <gridEL>
0.000     

> <totalE>
0.010     

> <LGFE>
-2.551  

> <LE>
-0.364  

> <SMILES>
CCC([NH3+])C(N)=O

> <atom.dprop.GFE>
-0.065 -0.16 -0.17 -1.9 0 0.25 -0.49 0 0 0 0 0 0 0 0 0 0 0

> <atom.prop.CLASS>
PRPC PRPC PRPC MAMN NCLA GENA GEND NCLA NCLA NCLA NCLA NCLA NCLA NCLA NCLA NCLA NCLA NCLA

$$$$
