42_2
     RDKit          3D

 18 17  0  0  1  0  0  0  0  0999 V2000
  -23.3459   -2.2326  -20.0900 C   0  0  0  0  0  0  0  0  0  0  0  0
  -24.0088   -2.9508  -19.0008 N   0  0  0  0  0  0  0  0  0  0  0  0
  -25.3392   -2.9455  -18.8465 C   0  0  0  0  0  0  0  0  0  0  0  0
  -26.0773   -2.3180  -19.6004 O   0  0  0  0  0  0  0  0  0  0  0  0
  -26.0015   -3.7271  -17.6745 C   0  0  0  0  0  0  0  0  0  0  0  0
  -25.0742   -4.8109  -17.1226 C   0  0  0  0  0  0  0  0  0  0  0  0
  -27.2718   -4.3675  -18.1006 N   0  0  0  0  0  0  0  0  0  0  0  0
  -22.2622   -2.3400  -20.0137 H   0  0  0  0  0  0  0  0  0  0  0  0
  -23.5984   -1.1703  -20.0503 H   0  0  0  0  0  0  0  0  0  0  0  0
  -23.6729   -2.6287  -21.0544 H   0  0  0  0  0  0  0  0  0  0  0  0
  -23.4148   -3.4748  -18.3733 H   0  0  0  0  0  0  0  0  0  0  0  0
  -26.2032   -3.0090  -16.8760 H   0  0  0  0  0  0  0  0  0  0  0  0
  -24.8256   -5.5306  -17.9049 H   0  0  0  0  0  0  0  0  0  0  0  0
  -25.5465   -5.3277  -16.2864 H   0  0  0  0  0  0  0  0  0  0  0  0
  -24.1485   -4.3556  -16.7672 H   0  0  0  0  0  0  0  0  0  0  0  0
  -27.0669   -4.8945  -18.9423 H   0  0  0  0  0  0  0  0  0  0  0  0
  -27.9242   -3.6504  -18.3875 H   0  0  0  0  0  0  0  0  0  0  0  0
  -27.6587   -4.9597  -17.3828 H   0  0  0  0  0  0  0  0  0  0  0  0
  1  2  1  0
  1  8  1  0
  1  9  1  0
  1 10  1  0
  2  3  1  0
  2 11  1  0
  3  4  2  0
  3  5  1  0
  5  6  1  0
  5  7  1  0
  5 12  1  0
  6 13  1  0
  6 14  1  0
  6 15  1  0
  7 16  1  0
  7 17  1  0
  7 18  1  0
M  CHG  1   7   1
M  END
> <intraLJ>
0.123     

> <intraEL>
3.100     

> <intraDihe>
0.291     

> <interLJ>
0.000     

> <interEJ>
0.000     

> <gridLJ>
-2.304    

> <gridEL>
0.000     

> <totalE>
1.209     

> <LGFE>
-2.304  

> <LE>
-0.329  

> <SMILES>
CNC(=O)C(C)[NH3+]

> <atom.dprop.GFE>
-0.36 -0.28 0 -0.33 -0.33 -0.24 -0.76 0 0 0 0 0 0 0 0 0 0 0

> <atom.prop.CLASS>
PRPC GEND NCLA GENA PRPC PRPC MAMN NCLA NCLA NCLA NCLA NCLA NCLA NCLA NCLA NCLA NCLA NCLA

$$$$
