35_2
     RDKit          3D

 10 10  0  0  0  0  0  0  0  0999 V2000
   13.8938    7.9252    1.4087 N   0  0  0  0  0  0  0  0  0  0  0  0
   13.1808    7.4852    2.5084 C   0  0  0  0  0  0  0  0  0  0  0  0
   11.9408    7.8797    2.7651 N   0  0  0  0  0  0  0  0  0  0  0  0
   11.5731    7.2613    3.8901 C   0  0  0  0  0  0  0  0  0  0  0  0
   12.5439    6.5219    4.3113 N   0  0  0  0  0  0  0  0  0  0  0  0
   13.5948    6.6656    3.4190 N   0  0  0  0  0  0  0  0  0  0  0  0
   14.7369    7.3504    1.2576 H   0  0  0  0  0  0  0  0  0  0  0  0
   13.3428    8.0861    0.5561 H   0  0  0  0  0  0  0  0  0  0  0  0
   11.3947    8.5457    2.2050 H   0  0  0  0  0  0  0  0  0  0  0  0
   10.6166    7.4009    4.3248 H   0  0  0  0  0  0  0  0  0  0  0  0
  1  2  1  0
  1  7  1  0
  1  8  1  0
  2  3  1  0
  2  6  2  0
  3  4  1  0
  3  9  1  0
  4  5  2  0
  4 10  1  0
  5  6  1  0
M  END
> <intraLJ>
-0.237    

> <intraEL>
-7.007    

> <intraDihe>
2.733     

> <interLJ>
0.000     

> <interEJ>
0.000     

> <gridLJ>
-3.984    

> <gridEL>
0.000     

> <totalE>
-8.496    

> <LGFE>
-3.984  

> <LE>
-0.664  

> <SMILES>
Nc1nnc[nH]1

> <atom.dprop.GFE>
-1.1 -0.21 -0.81 -0.11 -0.86 -0.9 0 0 0 0

> <atom.prop.CLASS>
GEND GEHC GEND GEHC GENA GENA NCLA NCLA NCLA NCLA

$$$$
