71_1
     RDKit          3D

 18 18  0  0  0  0  0  0  0  0999 V2000
   17.8222   -1.2351  -34.0753 C   0  0  0  0  0  0  0  0  0  0  0  0
   17.3564   -2.6319  -33.6483 C   0  0  0  0  0  0  0  0  0  0  0  0
   18.2461   -3.7249  -34.1089 N   0  0  0  0  0  0  0  0  0  0  0  0
   18.9055   -3.5618  -35.4328 C   0  0  0  0  0  0  0  0  0  0  0  0
   17.9984   -2.9774  -36.5253 C   0  0  0  0  0  0  0  0  0  0  0  0
   18.0682   -1.5526  -36.5309 O   0  0  0  0  0  0  0  0  0  0  0  0
   17.3536   -0.8872  -35.4971 C   0  0  0  0  0  0  0  0  0  0  0  0
   18.9063   -1.1522  -33.9985 H   0  0  0  0  0  0  0  0  0  0  0  0
   17.3790   -0.5113  -33.3937 H   0  0  0  0  0  0  0  0  0  0  0  0
   16.3498   -2.7919  -34.0391 H   0  0  0  0  0  0  0  0  0  0  0  0
   17.2958   -2.6731  -32.5585 H   0  0  0  0  0  0  0  0  0  0  0  0
   17.7503   -4.6053  -34.0516 H   0  0  0  0  0  0  0  0  0  0  0  0
   19.2933   -4.5271  -35.7608 H   0  0  0  0  0  0  0  0  0  0  0  0
   19.7596   -2.8905  -35.3280 H   0  0  0  0  0  0  0  0  0  0  0  0
   16.9728   -3.3275  -36.4034 H   0  0  0  0  0  0  0  0  0  0  0  0
   18.3690   -3.3276  -37.4884 H   0  0  0  0  0  0  0  0  0  0  0  0
   17.4921    0.1855  -35.6443 H   0  0  0  0  0  0  0  0  0  0  0  0
   16.2862   -1.0956  -35.5948 H   0  0  0  0  0  0  0  0  0  0  0  0
  1  2  1  0
  1  7  1  0
  1  8  1  0
  1  9  1  0
  2  3  1  0
  2 10  1  0
  2 11  1  0
  3  4  1  0
  3 12  1  0
  4  5  1  0
  4 13  1  0
  4 14  1  0
  5  6  1  0
  5 15  1  0
  5 16  1  0
  6  7  1  0
  7 17  1  0
  7 18  1  0
M  END
> <intraLJ>
0.655     

> <intraEL>
0.902     

> <intraDihe>
9.506     

> <interLJ>
0.000     

> <interEJ>
0.000     

> <gridLJ>
-3.639    

> <gridEL>
0.000     

> <totalE>
7.424     

> <LGFE>
-3.639  

> <LE>
-0.520  

> <SMILES>
C1CNCCOC1

> <atom.dprop.GFE>
-0.42 -0.49 -0.47 -0.35 -0.25 -1.4 -0.3 0 0 0 0 0 0 0 0 0 0 0

> <atom.prop.CLASS>
PRPC PRPC GEND PRPC PRPC GENA PRPC NCLA NCLA NCLA NCLA NCLA NCLA NCLA NCLA NCLA NCLA NCLA

$$$$
