66
     RDKit          3D

 11 11  0  0  0  0  0  0  0  0999 V2000
    1.4408   -1.5320  -35.4244 Br  0  0  0  0  0  0  0  0  0  0  0  0
    1.9930   -0.1961  -36.6459 C   0  0  0  0  0  0  0  0  0  0  0  0
    1.0580    0.4728  -37.4237 C   0  0  0  0  0  0  0  0  0  0  0  0
    1.5143    1.4446  -38.3039 C   0  0  0  0  0  0  0  0  0  0  0  0
    2.8782    1.7172  -38.3832 C   0  0  0  0  0  0  0  0  0  0  0  0
    3.7658    1.0658  -37.6296 N   0  0  0  0  0  0  0  0  0  0  0  0
    3.3436    0.1284  -36.7760 C   0  0  0  0  0  0  0  0  0  0  0  0
    0.0247    0.2475  -37.3457 H   0  0  0  0  0  0  0  0  0  0  0  0
    0.8327    1.9780  -38.9148 H   0  0  0  0  0  0  0  0  0  0  0  0
    3.2395    2.4566  -39.0521 H   0  0  0  0  0  0  0  0  0  0  0  0
    4.0697   -0.3739  -36.1892 H   0  0  0  0  0  0  0  0  0  0  0  0
  1  2  1  0
  2  3  2  0
  2  7  1  0
  3  4  1  0
  3  8  1  0
  4  5  2  0
  4  9  1  0
  5  6  1  0
  5 10  1  0
  6  7  2  0
  7 11  1  0
M  END
> <intraLJ>
11.953    

> <intraEL>
0.329     

> <intraDihe>
0.000     

> <interLJ>
0.000     

> <interEJ>
0.000     

> <gridLJ>
-2.059    

> <gridEL>
0.000     

> <totalE>
10.223    

> <LGFE>
-2.059  

> <LE>
-0.294  

> <SMILES>
Brc1cccnc1

> <atom.dprop.GFE>
-0.29 -0.18 -0.16 -0.15 -0.21 -0.82 -0.25 0 0 0 0

> <atom.prop.CLASS>
GENA BENC BENC BENC GEHC GENA GEHC NCLA NCLA NCLA NCLA

$$$$
