77
     RDKit          3D

 12 12  0  0  0  0  0  0  0  0999 V2000
   -8.5633   10.1941  -11.1176 N   0  0  0  0  0  0  0  0  0  0  0  0
   -7.5773   10.4426  -10.1450 C   0  0  0  0  0  0  0  0  0  0  0  0
   -7.9111   11.0157   -8.9186 C   0  0  0  0  0  0  0  0  0  0  0  0
   -6.9651   11.2585   -8.0221 N   0  0  0  0  0  0  0  0  0  0  0  0
   -5.6990   10.9414   -8.3060 C   0  0  0  0  0  0  0  0  0  0  0  0
   -5.3246   10.3836   -9.4600 N   0  0  0  0  0  0  0  0  0  0  0  0
   -6.2409   10.1254  -10.3825 C   0  0  0  0  0  0  0  0  0  0  0  0
   -8.2198   10.1079  -12.0868 H   0  0  0  0  0  0  0  0  0  0  0  0
   -9.4273   10.7511  -11.0285 H   0  0  0  0  0  0  0  0  0  0  0  0
   -8.9156   11.2617   -8.6890 H   0  0  0  0  0  0  0  0  0  0  0  0
   -4.9539   11.1430   -7.5774 H   0  0  0  0  0  0  0  0  0  0  0  0
   -5.9429    9.6766  -11.2950 H   0  0  0  0  0  0  0  0  0  0  0  0
  1  2  1  0
  1  8  1  0
  1  9  1  0
  2  3  2  0
  2  7  1  0
  3  4  1  0
  3 10  1  0
  4  5  2  0
  5  6  1  0
  5 11  1  0
  6  7  2  0
  7 12  1  0
M  END
> <intraLJ>
18.269    

> <intraEL>
2.751     

> <intraDihe>
1.494     

> <interLJ>
0.000     

> <interEJ>
0.000     

> <gridLJ>
-3.017    

> <gridEL>
0.000     

> <totalE>
19.498    

> <LGFE>
-3.017  

> <LE>
-0.431  

> <SMILES>
Nc1cncnc1

> <atom.dprop.GFE>
-0.36 -0.21 -0.21 -0.86 -0.31 -0.86 -0.2 0 0 0 0 0

> <atom.prop.CLASS>
GEND BENC BENC GENA GEHC GENA BENC NCLA NCLA NCLA NCLA NCLA

$$$$
