36_1
     RDKit          3D

 13 13  0  0  0  0  0  0  0  0999 V2000
    7.2642   10.1926  -38.2119 N   0  0  0  0  0  0  0  0  0  0  0  0
    6.8527   11.3971  -37.5000 C   0  0  0  0  0  0  0  0  0  0  0  0
    8.1408   12.1593  -37.2537 C   0  0  0  0  0  0  0  0  0  0  0  0
    8.7729   12.2996  -36.0763 C   0  0  0  0  0  0  0  0  0  0  0  0
    9.8546   13.0338  -36.2734 O   0  0  0  0  0  0  0  0  0  0  0  0
    9.8483   13.3220  -37.5854 C   0  0  0  0  0  0  0  0  0  0  0  0
    8.8437   12.8238  -38.2159 N   0  0  0  0  0  0  0  0  0  0  0  0
    7.9592    9.7507  -37.6207 H   0  0  0  0  0  0  0  0  0  0  0  0
    7.7486   10.4778  -39.0509 H   0  0  0  0  0  0  0  0  0  0  0  0
    6.4165   11.1298  -36.5462 H   0  0  0  0  0  0  0  0  0  0  0  0
    6.1894   11.9877  -38.1200 H   0  0  0  0  0  0  0  0  0  0  0  0
    8.5280   11.9309  -35.1137 H   0  0  0  0  0  0  0  0  0  0  0  0
   10.6330   13.9134  -37.9878 H   0  0  0  0  0  0  0  0  0  0  0  0
  1  2  1  0
  1  8  1  0
  1  9  1  0
  2  3  1  0
  2 10  1  0
  2 11  1  0
  3  4  2  0
  3  7  1  0
  4  5  1  0
  4 12  1  0
  5  6  1  0
  6  7  2  0
  6 13  1  0
M  END
> <intraLJ>
0.952     

> <intraEL>
3.213     

> <intraDihe>
2.698     

> <interLJ>
0.000     

> <interEJ>
0.000     

> <gridLJ>
-3.685    

> <gridEL>
0.000     

> <totalE>
3.177     

> <LGFE>
-3.685  

> <LE>
-0.526  

> <SMILES>
NCc1cocn1

> <atom.dprop.GFE>
-0.89 -0.23 -0.2 -0.19 -1.6 -0.19 -0.42 0 0 0 0 0 0

> <atom.prop.CLASS>
GEND PRPC GEHC GEHC GENA GEHC GENA NCLA NCLA NCLA NCLA NCLA NCLA

$$$$
