74_1
     RDKit          3D

 12 12  0  0  0  0  0  0  0  0999 V2000
  -21.0258    5.4226    6.6170 O   0  0  0  0  0  0  0  0  0  0  0  0
  -19.7563    5.2686    6.9573 C   0  0  0  0  0  0  0  0  0  0  0  0
  -18.9511    4.2930    6.3806 C   0  0  0  0  0  0  0  0  0  0  0  0
  -17.6321    4.2002    6.7952 C   0  0  0  0  0  0  0  0  0  0  0  0
  -17.1963    5.0946    7.7685 C   0  0  0  0  0  0  0  0  0  0  0  0
  -18.0813    6.0402    8.2875 C   0  0  0  0  0  0  0  0  0  0  0  0
  -19.3511    6.1236    7.8824 N   0  0  0  0  0  0  0  0  0  0  0  0
  -21.2853    6.1671    7.1925 H   0  0  0  0  0  0  0  0  0  0  0  0
  -19.3474    3.6449    5.6442 H   0  0  0  0  0  0  0  0  0  0  0  0
  -16.9779    3.4727    6.3863 H   0  0  0  0  0  0  0  0  0  0  0  0
  -16.1962    5.0596    8.1151 H   0  0  0  0  0  0  0  0  0  0  0  0
  -17.7512    6.7238    9.0289 H   0  0  0  0  0  0  0  0  0  0  0  0
  1  2  1  0
  1  8  1  0
  2  3  2  0
  2  7  1  0
  3  4  1  0
  3  9  1  0
  4  5  2  0
  4 10  1  0
  5  6  1  0
  5 11  1  0
  6  7  2  0
  6 12  1  0
M  END
> <intraLJ>
13.107    

> <intraEL>
-5.244    

> <intraDihe>
0.000     

> <interLJ>
0.000     

> <interEJ>
0.000     

> <gridLJ>
-3.998    

> <gridEL>
0.000     

> <totalE>
3.865     

> <LGFE>
-3.998  

> <LE>
-0.571  

> <SMILES>
Oc1ccccn1

> <atom.dprop.GFE>
-0.99 -0.27 -0.24 -0.25 -0.27 -0.17 -1.8 0 0 0 0 0

> <atom.prop.CLASS>
MEOO GEHC BENC BENC BENC GEHC GENA NCLA NCLA NCLA NCLA NCLA

$$$$
