19_1
     RDKit          3D

 11 11  0  0  0  0  0  0  0  0999 V2000
   20.4398   -2.8138  -11.7283 N   0  0  0  0  0  0  0  0  0  0  0  0
   19.2156   -2.8046  -12.3555 C   0  0  0  0  0  0  0  0  0  0  0  0
   17.9590   -2.6717  -11.7805 C   0  0  0  0  0  0  0  0  0  0  0  0
   17.0806   -2.7016  -12.8062 C   0  0  0  0  0  0  0  0  0  0  0  0
   17.8358   -2.8472  -13.9229 N   0  0  0  0  0  0  0  0  0  0  0  0
   19.1790   -2.9053  -13.6428 N   0  0  0  0  0  0  0  0  0  0  0  0
   21.1430   -2.6507  -12.4600 H   0  0  0  0  0  0  0  0  0  0  0  0
   20.4680   -2.0915  -11.0010 H   0  0  0  0  0  0  0  0  0  0  0  0
   17.7414   -2.5743  -10.7494 H   0  0  0  0  0  0  0  0  0  0  0  0
   16.0242   -2.6373  -12.8324 H   0  0  0  0  0  0  0  0  0  0  0  0
   17.4572   -2.9090  -14.8864 H   0  0  0  0  0  0  0  0  0  0  0  0
  1  2  1  0
  1  7  1  0
  1  8  1  0
  2  3  1  0
  2  6  2  0
  3  4  2  0
  3  9  1  0
  4  5  1  0
  4 10  1  0
  5  6  1  0
  5 11  1  0
M  END
> <intraLJ>
-0.199    

> <intraEL>
-8.716    

> <intraDihe>
2.079     

> <interLJ>
0.000     

> <interEJ>
0.000     

> <gridLJ>
-2.511    

> <gridEL>
0.000     

> <totalE>
-9.346    

> <LGFE>
-2.511  

> <LE>
-0.418  

> <SMILES>
Nc1cc[nH]n1

> <atom.dprop.GFE>
-0.71 -0.22 -0.11 -0.022 -0.76 -0.69 0 0 0 0 0

> <atom.prop.CLASS>
GEND GEHC GEHC GEHC GEND GENA NCLA NCLA NCLA NCLA NCLA

$$$$
