11_1
     RDKit          3D

 11 11  0  0  0  0  0  0  0  0999 V2000
   -6.5691   -7.3840    7.9927 O   0  0  0  0  0  0  0  0  0  0  0  0
   -7.7305   -7.1765    8.2808 C   0  0  0  0  0  0  0  0  0  0  0  0
   -8.9205   -7.1936    7.3770 C   0  0  0  0  0  0  0  0  0  0  0  0
  -10.0520   -7.3354    8.4167 C   0  0  0  0  0  0  0  0  0  0  0  0
   -9.5008   -6.7717    9.6533 O   0  0  0  0  0  0  0  0  0  0  0  0
   -8.1154   -6.9004    9.5263 N   0  0  0  0  0  0  0  0  0  0  0  0
   -8.8862   -8.0401    6.7067 H   0  0  0  0  0  0  0  0  0  0  0  0
   -8.9913   -6.2305    6.8945 H   0  0  0  0  0  0  0  0  0  0  0  0
  -10.2833   -8.3901    8.5767 H   0  0  0  0  0  0  0  0  0  0  0  0
  -10.9488   -6.7957    8.1075 H   0  0  0  0  0  0  0  0  0  0  0  0
   -7.4590   -6.8198   10.3175 H   0  0  0  0  0  0  0  0  0  0  0  0
  1  2  2  0
  2  3  1  0
  2  6  1  0
  3  4  1  0
  3  7  1  0
  3  8  1  0
  4  5  1  0
  4  9  1  0
  4 10  1  0
  5  6  1  0
  6 11  1  0
M  END
> <intraLJ>
-0.418    

> <intraEL>
-2.154    

> <intraDihe>
5.561     

> <interLJ>
0.000     

> <interEJ>
0.000     

> <gridLJ>
-2.567    

> <gridEL>
0.000     

> <totalE>
0.423     

> <LGFE>
-2.567  

> <LE>
-0.428  

> <SMILES>
O=C1CCON1

> <atom.dprop.GFE>
-0.54 -0.093 -0.26 -0.16 -0.9 -0.62 0 0 0 0 0

> <atom.prop.CLASS>
GENA GEHC PRPC PRPC GENA GEND NCLA NCLA NCLA NCLA NCLA

$$$$
