15_2
     RDKit          3D

 14 14  0  0  0  0  0  0  0  0999 V2000
  -36.0235   15.9069   25.3593 N   0  0  0  0  0  0  0  0  0  0  0  0
  -37.2231   16.2524   25.8436 C   0  0  0  0  0  0  0  0  0  0  0  0
  -37.8299   15.6428   26.9607 C   0  0  0  0  0  0  0  0  0  0  0  0
  -39.0660   16.0774   27.3745 C   0  0  0  0  0  0  0  0  0  0  0  0
  -39.6987   17.1229   26.6726 C   0  0  0  0  0  0  0  0  0  0  0  0
  -39.0793   17.6992   25.5851 C   0  0  0  0  0  0  0  0  0  0  0  0
  -37.8473   17.2456   25.1951 N   0  0  0  0  0  0  0  0  0  0  0  0
  -35.5741   16.3496   24.5413 H   0  0  0  0  0  0  0  0  0  0  0  0
  -35.4909   15.1441   25.8184 H   0  0  0  0  0  0  0  0  0  0  0  0
  -37.3247   14.8583   27.4644 H   0  0  0  0  0  0  0  0  0  0  0  0
  -39.5457   15.6335   28.2141 H   0  0  0  0  0  0  0  0  0  0  0  0
  -40.6536   17.4613   26.9893 H   0  0  0  0  0  0  0  0  0  0  0  0
  -39.4851   18.4894   25.0017 H   0  0  0  0  0  0  0  0  0  0  0  0
  -37.3685   17.6635   24.3846 H   0  0  0  0  0  0  0  0  0  0  0  0
  1  2  1  0
  1  8  1  0
  1  9  1  0
  2  3  2  0
  2  7  1  0
  3  4  1  0
  3 10  1  0
  4  5  2  0
  4 11  1  0
  5  6  1  0
  5 12  1  0
  6  7  2  0
  6 13  1  0
  7 14  1  0
M  CHG  1   7   1
M  END
> <intraLJ>
8.433     

> <intraEL>
1.228     

> <intraDihe>
0.000     

> <interLJ>
0.000     

> <interEJ>
0.000     

> <gridLJ>
-2.040    

> <gridEL>
0.000     

> <totalE>
7.621     

> <LGFE>
-2.040  

> <LE>
-0.291  

> <SMILES>
Nc1cccc[nH+]1

> <atom.dprop.GFE>
-0.45 -0.042 -0.056 -0.067 -0.041 -0.0099 -1.4 0 0 0 0 0 0 0

> <atom.prop.CLASS>
GEND BENC BENC BENC BENC BENC MAMN NCLA NCLA NCLA NCLA NCLA NCLA NCLA

$$$$
