71_2
     RDKit          3D

 19 19  0  0  0  0  0  0  0  0999 V2000
  -35.0739   -5.0352    7.7323 C   0  0  0  0  0  0  0  0  0  0  0  0
  -34.6380   -4.1183    8.8734 C   0  0  0  0  0  0  0  0  0  0  0  0
  -34.0553   -2.8282    8.4161 N   0  0  0  0  0  0  0  0  0  0  0  0
  -33.1115   -2.9165    7.2600 C   0  0  0  0  0  0  0  0  0  0  0  0
  -32.2079   -4.1570    7.2608 C   0  0  0  0  0  0  0  0  0  0  0  0
  -32.8935   -5.2055    6.5847 O   0  0  0  0  0  0  0  0  0  0  0  0
  -33.8992   -5.9213    7.2895 C   0  0  0  0  0  0  0  0  0  0  0  0
  -35.4710   -4.4702    6.8883 H   0  0  0  0  0  0  0  0  0  0  0  0
  -35.8617   -5.6925    8.1035 H   0  0  0  0  0  0  0  0  0  0  0  0
  -33.8933   -4.6695    9.4559 H   0  0  0  0  0  0  0  0  0  0  0  0
  -35.4891   -3.9262    9.5341 H   0  0  0  0  0  0  0  0  0  0  0  0
  -33.5842   -2.4070    9.2071 H   0  0  0  0  0  0  0  0  0  0  0  0
  -34.8037   -2.2004    8.1447 H   0  0  0  0  0  0  0  0  0  0  0  0
  -32.4997   -2.0123    7.1989 H   0  0  0  0  0  0  0  0  0  0  0  0
  -33.6856   -2.9830    6.3321 H   0  0  0  0  0  0  0  0  0  0  0  0
  -31.9053   -4.4441    8.2688 H   0  0  0  0  0  0  0  0  0  0  0  0
  -31.3108   -3.9225    6.6846 H   0  0  0  0  0  0  0  0  0  0  0  0
  -34.2864   -6.6925    6.6196 H   0  0  0  0  0  0  0  0  0  0  0  0
  -33.4617   -6.4304    8.1508 H   0  0  0  0  0  0  0  0  0  0  0  0
  1  2  1  0
  1  7  1  0
  1  8  1  0
  1  9  1  0
  2  3  1  0
  2 10  1  0
  2 11  1  0
  3  4  1  0
  3 12  1  0
  3 13  1  0
  4  5  1  0
  4 14  1  0
  4 15  1  0
  5  6  1  0
  5 16  1  0
  5 17  1  0
  6  7  1  0
  7 18  1  0
  7 19  1  0
M  CHG  1   3   1
M  END
> <intraLJ>
1.159     

> <intraEL>
4.103     

> <intraDihe>
11.900    

> <interLJ>
0.000     

> <interEJ>
0.000     

> <gridLJ>
-2.104    

> <gridEL>
0.000     

> <totalE>
15.059    

> <LGFE>
-2.104  

> <LE>
-0.301  

> <SMILES>
C1C[NH2+]CCOC1

> <atom.dprop.GFE>
-0.14 -0.021 -1.3 0.086 -0.086 -0.4 -0.22 0 0 0 0 0 0 0 0 0 0 0 0

> <atom.prop.CLASS>
PRPC PRPC MAMN PRPC PRPC GENA PRPC NCLA NCLA NCLA NCLA NCLA NCLA NCLA NCLA NCLA NCLA NCLA NCLA

$$$$
