41
     RDKit          3D

  8  8  0  0  0  0  0  0  0  0999 V2000
   11.7517   -6.2285  -16.1198 C   0  0  0  0  0  0  0  0  0  0  0  0
   11.4478   -5.6033  -14.9684 C   0  0  0  0  0  0  0  0  0  0  0  0
   12.4924   -4.8122  -14.7272 N   0  0  0  0  0  0  0  0  0  0  0  0
   13.4107   -4.9412  -15.6940 N   0  0  0  0  0  0  0  0  0  0  0  0
   12.9571   -5.8183  -16.5602 N   0  0  0  0  0  0  0  0  0  0  0  0
   11.1494   -6.9406  -16.6246 H   0  0  0  0  0  0  0  0  0  0  0  0
   10.6032   -5.6616  -14.3334 H   0  0  0  0  0  0  0  0  0  0  0  0
   12.6111   -4.1755  -13.9179 H   0  0  0  0  0  0  0  0  0  0  0  0
  1  2  2  0
  1  5  1  0
  1  6  1  0
  2  3  1  0
  2  7  1  0
  3  4  1  0
  3  8  1  0
  4  5  2  0
M  END
> <intraLJ>
-0.290    

> <intraEL>
-0.628    

> <intraDihe>
0.000     

> <interLJ>
0.000     

> <interEJ>
0.000     

> <gridLJ>
-2.100    

> <gridEL>
0.000     

> <totalE>
-3.018    

> <LGFE>
-2.100  

> <LE>
-0.420  

> <SMILES>
c1c[nH]nn1

> <atom.dprop.GFE>
-0.1 -0.17 -0.6 -0.61 -0.61 0 0 0

> <atom.prop.CLASS>
GEHC GEHC GEND GENA GENA NCLA NCLA NCLA

$$$$
