49_2
     RDKit          3D

 19 19  0  0  1  0  0  0  0  0999 V2000
  -36.3349   15.6424   25.4849 O   0  0  0  0  0  0  0  0  0  0  0  0
  -35.9135   15.5324   26.8392 C   0  0  0  0  0  0  0  0  0  0  0  0
  -34.3754   15.4691   26.8745 C   0  0  0  0  0  0  0  0  0  0  0  0
  -33.7439   15.3809   28.2632 C   0  0  0  0  0  0  0  0  0  0  0  0
  -32.3504   16.0164   28.0678 C   0  0  0  0  0  0  0  0  0  0  0  0
  -32.3367   16.4776   26.6108 C   0  0  0  0  0  0  0  0  0  0  0  0
  -33.7551   16.6562   26.2698 N   0  0  0  0  0  0  0  0  0  0  0  0
  -37.2982   15.5825   25.4274 H   0  0  0  0  0  0  0  0  0  0  0  0
  -36.2608   16.4027   27.4008 H   0  0  0  0  0  0  0  0  0  0  0  0
  -36.3223   14.6285   27.2934 H   0  0  0  0  0  0  0  0  0  0  0  0
  -34.0634   14.5875   26.3066 H   0  0  0  0  0  0  0  0  0  0  0  0
  -34.3183   15.9643   28.9858 H   0  0  0  0  0  0  0  0  0  0  0  0
  -33.6703   14.3427   28.5896 H   0  0  0  0  0  0  0  0  0  0  0  0
  -31.5516   15.2937   28.2461 H   0  0  0  0  0  0  0  0  0  0  0  0
  -32.2312   16.8739   28.7335 H   0  0  0  0  0  0  0  0  0  0  0  0
  -31.9070   15.6749   26.0029 H   0  0  0  0  0  0  0  0  0  0  0  0
  -31.7494   17.3900   26.4735 H   0  0  0  0  0  0  0  0  0  0  0  0
  -33.9716   16.7000   25.2797 H   0  0  0  0  0  0  0  0  0  0  0  0
  -34.1321   17.4737   26.7244 H   0  0  0  0  0  0  0  0  0  0  0  0
  1  2  1  0
  1  8  1  0
  2  3  1  0
  2  9  1  0
  2 10  1  0
  3  4  1  0
  3  7  1  0
  3 11  1  0
  4  5  1  0
  4 12  1  0
  4 13  1  0
  5  6  1  0
  5 14  1  0
  5 15  1  0
  6  7  1  0
  6 16  1  0
  6 17  1  0
  7 18  1  0
  7 19  1  0
M  CHG  1   7   1
M  END
> <intraLJ>
0.744     

> <intraEL>
7.788     

> <intraDihe>
8.409     

> <interLJ>
0.000     

> <interEJ>
0.000     

> <gridLJ>
-3.082    

> <gridEL>
0.000     

> <totalE>
13.859    

> <LGFE>
-3.082  

> <LE>
-0.440  

> <SMILES>
OCC1CCC[NH2+]1

> <atom.dprop.GFE>
-0.36 -0.28 -0.37 -0.37 -0.31 -0.27 -1.1 0 0 0 0 0 0 0 0 0 0 0 0

> <atom.prop.CLASS>
MEOO PRPC PRPC PRPC PRPC PRPC MAMN NCLA NCLA NCLA NCLA NCLA NCLA NCLA NCLA NCLA NCLA NCLA NCLA

$$$$
