4
     RDKit          3D

 13 13  0  0  0  0  0  0  0  0999 V2000
    1.9025   -2.4981   -6.5722 O   0  0  0  0  0  0  0  0  0  0  0  0
    0.9980   -1.9620   -5.5887 C   0  0  0  0  0  0  0  0  0  0  0  0
    1.7058   -2.2146   -4.2483 C   0  0  0  0  0  0  0  0  0  0  0  0
    1.5169   -3.5756   -3.6454 C   0  0  0  0  0  0  0  0  0  0  0  0
    0.8123   -2.3762   -3.0539 C   0  0  0  0  0  0  0  0  0  0  0  0
    1.5299   -2.4109   -7.4644 H   0  0  0  0  0  0  0  0  0  0  0  0
    0.0580   -2.4963   -5.6224 H   0  0  0  0  0  0  0  0  0  0  0  0
    0.8911   -0.8942   -5.7330 H   0  0  0  0  0  0  0  0  0  0  0  0
    2.6623   -1.7229   -4.1251 H   0  0  0  0  0  0  0  0  0  0  0  0
    2.3568   -3.9718   -3.0896 H   0  0  0  0  0  0  0  0  0  0  0  0
    0.9105   -4.2797   -4.2007 H   0  0  0  0  0  0  0  0  0  0  0  0
   -0.2557   -2.3147   -3.2157 H   0  0  0  0  0  0  0  0  0  0  0  0
    1.1974   -2.0085   -2.1112 H   0  0  0  0  0  0  0  0  0  0  0  0
  1  2  1  0
  1  6  1  0
  2  3  1  0
  2  7  1  0
  2  8  1  0
  3  4  1  0
  3  5  1  0
  3  9  1  0
  4  5  1  0
  4 10  1  0
  4 11  1  0
  5 12  1  0
  5 13  1  0
M  END
> <intraLJ>
-0.264    

> <intraEL>
1.551     

> <intraDihe>
2.184     

> <interLJ>
0.000     

> <interEJ>
0.000     

> <gridLJ>
-3.848    

> <gridEL>
0.000     

> <totalE>
-0.377    

> <LGFE>
-3.848  

> <LE>
-0.770  

> <SMILES>
OCC1CC1

> <atom.dprop.GFE>
-1.8 -0.57 -0.58 -0.51 -0.39 0 0 0 0 0 0 0 0

> <atom.prop.CLASS>
MEOO PRPC PRPC PRPC PRPC NCLA NCLA NCLA NCLA NCLA NCLA NCLA NCLA

$$$$
