43
     RDKit          3D

 16 16  0  0  0  0  0  0  0  0999 V2000
   21.1510   -3.5131  -27.1302 O   0  0  0  0  0  0  0  0  0  0  0  0
   21.1357   -4.6580  -26.5141 B   0  0  0  0  0  0  0  0  0  0  0  0
   22.2707   -5.2918  -26.4988 O   0  0  0  0  0  0  0  0  0  0  0  0
   19.8125   -5.2341  -25.7905 C   0  0  0  0  0  0  0  0  0  0  0  0
   19.6211   -6.7638  -25.9824 C   0  0  0  0  0  0  0  0  0  0  0  0
   18.1057   -6.4576  -26.1653 C   0  0  0  0  0  0  0  0  0  0  0  0
   18.5179   -5.0288  -26.6256 C   0  0  0  0  0  0  0  0  0  0  0  0
   20.3105   -3.0227  -27.1399 H   0  0  0  0  0  0  0  0  0  0  0  0
   22.2769   -6.1461  -26.0326 H   0  0  0  0  0  0  0  0  0  0  0  0
   19.7439   -4.8966  -24.7634 H   0  0  0  0  0  0  0  0  0  0  0  0
   19.8525   -7.3521  -25.1058 H   0  0  0  0  0  0  0  0  0  0  0  0
   20.0792   -7.1376  -26.8891 H   0  0  0  0  0  0  0  0  0  0  0  0
   17.5657   -6.4531  -25.2268 H   0  0  0  0  0  0  0  0  0  0  0  0
   17.6264   -7.0483  -26.9350 H   0  0  0  0  0  0  0  0  0  0  0  0
   18.7047   -4.9758  -27.6909 H   0  0  0  0  0  0  0  0  0  0  0  0
   17.8749   -4.2417  -26.2581 H   0  0  0  0  0  0  0  0  0  0  0  0
  1  2  1  0
  1  8  1  0
  2  3  1  0
  2  4  1  0
  3  9  1  0
  4  5  1  0
  4  7  1  0
  4 10  1  0
  5  6  1  0
  5 11  1  0
  5 12  1  0
  6  7  1  0
  6 13  1  0
  6 14  1  0
  7 15  1  0
  7 16  1  0
M  END
> <intraLJ>
3.496     

> <intraEL>
0.177     

> <intraDihe>
30.179    

> <interLJ>
0.000     

> <interEJ>
0.000     

> <gridLJ>
-2.206    

> <gridEL>
0.000     

> <totalE>
31.645    

> <LGFE>
-2.206  

> <LE>
-0.315  

> <SMILES>
OB(O)C1CCC1

> <atom.dprop.GFE>
-1.3 0 -0.047 -0.11 -0.17 -0.3 -0.31 0 0 0 0 0 0 0 0 0

> <atom.prop.CLASS>
MEOO NCLA MEOO PRPC PRPC PRPC PRPC NCLA NCLA NCLA NCLA NCLA NCLA NCLA NCLA NCLA

$$$$
