6
     RDKit          3D

 10 10  0  0  0  0  0  0  0  0999 V2000
   13.8991    7.2442    1.5238 N   0  0  0  0  0  0  0  0  0  0  0  0
   13.0303    7.1843    2.5970 C   0  0  0  0  0  0  0  0  0  0  0  0
   12.0255    8.0915    2.8981 C   0  0  0  0  0  0  0  0  0  0  0  0
   11.4541    7.6137    4.0112 C   0  0  0  0  0  0  0  0  0  0  0  0
   12.0896    6.4796    4.3472 O   0  0  0  0  0  0  0  0  0  0  0  0
   13.0768    6.2242    3.4489 N   0  0  0  0  0  0  0  0  0  0  0  0
   14.3068    6.3151    1.3559 H   0  0  0  0  0  0  0  0  0  0  0  0
   13.4660    7.6606    0.6917 H   0  0  0  0  0  0  0  0  0  0  0  0
   11.7715    8.9713    2.3701 H   0  0  0  0  0  0  0  0  0  0  0  0
   10.6497    7.9815    4.5956 H   0  0  0  0  0  0  0  0  0  0  0  0
  1  2  1  0
  1  7  1  0
  1  8  1  0
  2  3  1  0
  2  6  2  0
  3  4  2  0
  3  9  1  0
  4  5  1  0
  4 10  1  0
  5  6  1  0
M  END
> <intraLJ>
-0.275    

> <intraEL>
-7.962    

> <intraDihe>
1.578     

> <interLJ>
0.000     

> <interEJ>
0.000     

> <gridLJ>
-3.373    

> <gridEL>
0.000     

> <totalE>
-10.032   

> <LGFE>
-3.373  

> <LE>
-0.562  

> <SMILES>
Nc1ccon1

> <atom.dprop.GFE>
-1.1 -0.21 -0.2 -0.11 -0.86 -0.9 0 0 0 0

> <atom.prop.CLASS>
GEND GEHC GEHC GEHC GENA GENA NCLA NCLA NCLA NCLA

$$$$
