54_2
     RDKit          3D

 10  9  0  0  0  0  0  0  0  0999 V2000
  -15.1098    4.5357    6.0795 C   0  0  0  0  0  0  0  0  0  0  0  0
  -15.1431    5.8422    6.8943 C   0  0  0  0  0  0  0  0  0  0  0  0
  -13.7834    6.2453    7.4498 C   0  0  0  0  0  0  0  0  0  0  0  0
  -12.8834    6.4822    6.6174 O   0  0  0  0  0  0  0  0  0  0  0  0
  -13.6763    6.2966    8.6928 O   0  0  0  0  0  0  0  0  0  0  0  0
  -16.1084    4.3014    5.7116 H   0  0  0  0  0  0  0  0  0  0  0  0
  -14.7516    3.7252    6.7159 H   0  0  0  0  0  0  0  0  0  0  0  0
  -14.4262    4.6554    5.2373 H   0  0  0  0  0  0  0  0  0  0  0  0
  -15.8215    5.7283    7.7370 H   0  0  0  0  0  0  0  0  0  0  0  0
  -15.4980    6.6555    6.2642 H   0  0  0  0  0  0  0  0  0  0  0  0
  1  2  1  0
  1  6  1  0
  1  7  1  0
  1  8  1  0
  2  3  1  0
  2  9  1  0
  2 10  1  0
  3  4  2  0
  3  5  1  0
M  CHG  1   5  -1
M  END
> <intraLJ>
0.387     

> <intraEL>
-0.256    

> <intraDihe>
0.009     

> <interLJ>
0.000     

> <interEJ>
0.000     

> <gridLJ>
-2.571    

> <gridEL>
0.000     

> <totalE>
-2.431    

> <LGFE>
-2.571  

> <LE>
-0.514  

> <SMILES>
CCC(=O)[O-]

> <atom.dprop.GFE>
-0.7 -0.6 -1.3 0 0 0 0 0 0 0

> <atom.prop.CLASS>
PRPC PRPC ACEC NCLA NCLA NCLA NCLA NCLA NCLA NCLA

$$$$
