27_2
     RDKit          3D

 12 12  0  0  0  0  0  0  0  0999 V2000
  -20.4465   10.7073   21.2995 N   0  0  0  0  0  0  0  0  0  0  0  0
  -19.1923   11.0899   21.3354 C   0  0  0  0  0  0  0  0  0  0  0  0
  -18.6982   12.1417   20.7236 N   0  0  0  0  0  0  0  0  0  0  0  0
  -17.3436   12.2214   20.9935 C   0  0  0  0  0  0  0  0  0  0  0  0
  -17.0472   11.1741   21.7907 C   0  0  0  0  0  0  0  0  0  0  0  0
  -18.2289   10.4811   21.9880 N   0  0  0  0  0  0  0  0  0  0  0  0
  -20.7458    9.8678   21.8097 H   0  0  0  0  0  0  0  0  0  0  0  0
  -21.1356   11.2452   20.7617 H   0  0  0  0  0  0  0  0  0  0  0  0
  -19.2629   12.7800   20.1463 H   0  0  0  0  0  0  0  0  0  0  0  0
  -16.7182   12.9905   20.6103 H   0  0  0  0  0  0  0  0  0  0  0  0
  -16.1209   10.8776   22.2183 H   0  0  0  0  0  0  0  0  0  0  0  0
  -18.3719    9.6282   22.5449 H   0  0  0  0  0  0  0  0  0  0  0  0
  1  2  2  0
  1  7  1  0
  1  8  1  0
  2  3  1  0
  2  6  1  0
  3  4  1  0
  3  9  1  0
  4  5  2  0
  4 10  1  0
  5  6  1  0
  5 11  1  0
  6 12  1  0
M  CHG  1   1   1
M  END
> <intraLJ>
-0.384    

> <intraEL>
3.349     

> <intraDihe>
0.000     

> <interLJ>
0.000     

> <interEJ>
0.000     

> <gridLJ>
-3.793    

> <gridEL>
0.000     

> <totalE>
-0.828    

> <LGFE>
-3.793  

> <LE>
-0.632  

> <SMILES>
[NH2+]=c1[nH]cc[nH]1

> <atom.dprop.GFE>
-2.3 -1.7 0 0.11 0.12 0 0 0 0 0 0 0

> <atom.prop.CLASS>
MAMN MAMC NCLA GEHC GEHC NCLA NCLA NCLA NCLA NCLA NCLA NCLA

$$$$
