6
     RDKit          3D

 10 10  0  0  0  0  0  0  0  0999 V2000
   22.9621   13.0601   -2.2415 N   0  0  0  0  0  0  0  0  0  0  0  0
   22.7306   13.5015   -3.5306 C   0  0  0  0  0  0  0  0  0  0  0  0
   23.5626   13.3250   -4.6261 C   0  0  0  0  0  0  0  0  0  0  0  0
   22.9188   13.9112   -5.6437 C   0  0  0  0  0  0  0  0  0  0  0  0
   21.7636   14.4060   -5.1710 O   0  0  0  0  0  0  0  0  0  0  0  0
   21.6609   14.1402   -3.8423 N   0  0  0  0  0  0  0  0  0  0  0  0
   22.0758   13.0322   -1.7205 H   0  0  0  0  0  0  0  0  0  0  0  0
   23.4821   12.1756   -2.2174 H   0  0  0  0  0  0  0  0  0  0  0  0
   24.5022   12.8414   -4.6510 H   0  0  0  0  0  0  0  0  0  0  0  0
   23.1814   14.0207   -6.6649 H   0  0  0  0  0  0  0  0  0  0  0  0
  1  2  1  0
  1  7  1  0
  1  8  1  0
  2  3  1  0
  2  6  2  0
  3  4  2  0
  3  9  1  0
  4  5  1  0
  4 10  1  0
  5  6  1  0
M  END
> <intraLJ>
-0.275    

> <intraEL>
-7.962    

> <intraDihe>
1.578     

> <interLJ>
0.000     

> <interEJ>
0.000     

> <gridLJ>
-3.110    

> <gridEL>
0.000     

> <totalE>
-9.769    

> <LGFE>
-3.110  

> <LE>
-0.518  

> <SMILES>
Nc1ccon1

> <atom.dprop.GFE>
-0.57 -0.21 -0.15 -0.17 -0.96 -1 0 0 0 0

> <atom.prop.CLASS>
GEND GEHC GEHC GEHC GENA GENA NCLA NCLA NCLA NCLA

$$$$
