35_1
     RDKit          3D

 10 10  0  0  0  0  0  0  0  0999 V2000
   17.1555   -2.1051  -18.8870 N   0  0  0  0  0  0  0  0  0  0  0  0
   16.9449   -3.2258  -19.6229 C   0  0  0  0  0  0  0  0  0  0  0  0
   16.1080   -3.2366  -20.6664 N   0  0  0  0  0  0  0  0  0  0  0  0
   16.1999   -4.4518  -21.0771 C   0  0  0  0  0  0  0  0  0  0  0  0
   17.0651   -5.1163  -20.3044 N   0  0  0  0  0  0  0  0  0  0  0  0
   17.5668   -4.3144  -19.3518 N   0  0  0  0  0  0  0  0  0  0  0  0
   18.0932   -2.1715  -18.4823 H   0  0  0  0  0  0  0  0  0  0  0  0
   17.0150   -1.2931  -19.4952 H   0  0  0  0  0  0  0  0  0  0  0  0
   15.7037   -4.9208  -21.8880 H   0  0  0  0  0  0  0  0  0  0  0  0
   17.3187   -6.1128  -20.4204 H   0  0  0  0  0  0  0  0  0  0  0  0
  1  2  1  0
  1  7  1  0
  1  8  1  0
  2  3  1  0
  2  6  2  0
  3  4  2  0
  4  5  1  0
  4  9  1  0
  5  6  1  0
  5 10  1  0
M  END
> <intraLJ>
0.124     

> <intraEL>
-9.860    

> <intraDihe>
2.848     

> <interLJ>
0.000     

> <interEJ>
0.000     

> <gridLJ>
-2.094    

> <gridEL>
0.000     

> <totalE>
-8.982    

> <LGFE>
-2.094  

> <LE>
-0.349  

> <SMILES>
Nc1nc[nH]n1

> <atom.dprop.GFE>
-0.78 -0.12 -0.037 0.026 -0.54 -0.64 0 0 0 0

> <atom.prop.CLASS>
GEND GEHC GENA GEHC GEND GENA NCLA NCLA NCLA NCLA

$$$$
