36_1
     RDKit          3D

 13 13  0  0  0  0  0  0  0  0999 V2000
  -18.2570   -3.4674   24.3868 N   0  0  0  0  0  0  0  0  0  0  0  0
  -19.0719   -3.4239   25.5956 C   0  0  0  0  0  0  0  0  0  0  0  0
  -19.2987   -4.8785   25.9610 C   0  0  0  0  0  0  0  0  0  0  0  0
  -18.7360   -5.5415   26.9854 C   0  0  0  0  0  0  0  0  0  0  0  0
  -19.1823   -6.7859   26.9666 O   0  0  0  0  0  0  0  0  0  0  0  0
  -20.0165   -6.8432   25.9153 C   0  0  0  0  0  0  0  0  0  0  0  0
  -20.1196   -5.7293   25.2801 N   0  0  0  0  0  0  0  0  0  0  0  0
  -18.7772   -4.0358   23.7278 H   0  0  0  0  0  0  0  0  0  0  0  0
  -17.4142   -3.9819   24.5985 H   0  0  0  0  0  0  0  0  0  0  0  0
  -20.0276   -2.9646   25.3787 H   0  0  0  0  0  0  0  0  0  0  0  0
  -18.5315   -2.9254   26.3910 H   0  0  0  0  0  0  0  0  0  0  0  0
  -18.0493   -5.2161   27.7236 H   0  0  0  0  0  0  0  0  0  0  0  0
  -20.5051   -7.7593   25.6934 H   0  0  0  0  0  0  0  0  0  0  0  0
  1  2  1  0
  1  8  1  0
  1  9  1  0
  2  3  1  0
  2 10  1  0
  2 11  1  0
  3  4  2  0
  3  7  1  0
  4  5  1  0
  4 12  1  0
  5  6  1  0
  6  7  2  0
  6 13  1  0
M  END
> <intraLJ>
0.947     

> <intraEL>
3.157     

> <intraDihe>
2.693     

> <interLJ>
0.000     

> <interEJ>
0.000     

> <gridLJ>
-4.028    

> <gridEL>
0.000     

> <totalE>
2.769     

> <LGFE>
-4.028  

> <LE>
-0.575  

> <SMILES>
NCc1cocn1

> <atom.dprop.GFE>
-0.98 -0.16 -0.23 -0.19 -0.75 -0.26 -1.5 0 0 0 0 0 0

> <atom.prop.CLASS>
GEND PRPC GEHC GEHC GENA GEHC GENA NCLA NCLA NCLA NCLA NCLA NCLA

$$$$
