37_1
     RDKit          3D

 12 11  0  0  1  0  0  0  0  0999 V2000
   -6.1458   -9.9872    1.6768 C   0  0  0  0  0  0  0  0  0  0  0  0
   -6.3937   -8.4701    1.6864 C   0  0  0  0  0  0  0  0  0  0  0  0
   -5.0985   -7.8526    1.4227 O   0  0  0  0  0  0  0  0  0  0  0  0
   -6.9006   -8.0515    3.0739 C   0  0  0  0  0  0  0  0  0  0  0  0
   -6.2544   -7.4191    3.9014 O   0  0  0  0  0  0  0  0  0  0  0  0
   -8.1168   -8.4437    3.5019 O   0  0  0  0  0  0  0  0  0  0  0  0
   -7.0930  -10.4927    1.8687 H   0  0  0  0  0  0  0  0  0  0  0  0
   -5.4155  -10.2319    2.4488 H   0  0  0  0  0  0  0  0  0  0  0  0
   -5.7631  -10.2597    0.6929 H   0  0  0  0  0  0  0  0  0  0  0  0
   -7.1192   -8.2007    0.9294 H   0  0  0  0  0  0  0  0  0  0  0  0
   -4.5662   -7.8586    2.2408 H   0  0  0  0  0  0  0  0  0  0  0  0
   -8.1772   -8.0718    4.3832 H   0  0  0  0  0  0  0  0  0  0  0  0
  1  2  1  0
  1  7  1  0
  1  8  1  0
  1  9  1  0
  2  3  1  0
  2  4  1  0
  2 10  1  0
  3 11  1  0
  4  5  2  0
  4  6  1  0
  6 12  1  0
M  END
> <intraLJ>
-0.237    

> <intraEL>
3.037     

> <intraDihe>
2.587     

> <interLJ>
0.000     

> <interEJ>
0.000     

> <gridLJ>
-3.460    

> <gridEL>
0.000     

> <totalE>
1.927     

> <LGFE>
-3.460  

> <LE>
-0.577  

> <SMILES>
CC(O)C(=O)O

> <atom.dprop.GFE>
-0.37 -0.29 -1.1 0 -1.1 -0.56 0 0 0 0 0 0

> <atom.prop.CLASS>
PRPC PRPC MEOO NCLA GENA MEOO NCLA NCLA NCLA NCLA NCLA NCLA

$$$$
