27_1
     RDKit          3D

 11 11  0  0  0  0  0  0  0  0999 V2000
    4.0714    4.7836  -41.4227 N   0  0  0  0  0  0  0  0  0  0  0  0
    3.7092    3.8205  -40.5129 C   0  0  0  0  0  0  0  0  0  0  0  0
    2.5038    3.3723  -40.3590 N   0  0  0  0  0  0  0  0  0  0  0  0
    2.6196    2.4431  -39.3609 C   0  0  0  0  0  0  0  0  0  0  0  0
    3.8992    2.3479  -38.9292 C   0  0  0  0  0  0  0  0  0  0  0  0
    4.5950    3.2387  -39.6715 N   0  0  0  0  0  0  0  0  0  0  0  0
    4.9989    4.6588  -41.8435 H   0  0  0  0  0  0  0  0  0  0  0  0
    3.3164    4.9314  -42.1073 H   0  0  0  0  0  0  0  0  0  0  0  0
    1.8044    1.8782  -38.9831 H   0  0  0  0  0  0  0  0  0  0  0  0
    4.3358    1.7414  -38.1785 H   0  0  0  0  0  0  0  0  0  0  0  0
    5.5965    3.4697  -39.6173 H   0  0  0  0  0  0  0  0  0  0  0  0
  1  2  1  0
  1  7  1  0
  1  8  1  0
  2  3  2  0
  2  6  1  0
  3  4  1  0
  4  5  2  0
  4  9  1  0
  5  6  1  0
  5 10  1  0
  6 11  1  0
M  END
> <intraLJ>
-0.193    

> <intraEL>
-10.326   

> <intraDihe>
2.842     

> <interLJ>
0.000     

> <interEJ>
0.000     

> <gridLJ>
-2.892    

> <gridEL>
0.000     

> <totalE>
-10.568   

> <LGFE>
-2.892  

> <LE>
-0.482  

> <SMILES>
Nc1ncc[nH]1

> <atom.dprop.GFE>
-0.66 -0.22 -0.74 -0.21 -0.14 -0.92 0 0 0 0 0

> <atom.prop.CLASS>
GEND GEHC GENA GEHC GEHC GEND NCLA NCLA NCLA NCLA NCLA

$$$$
