26_1
     RDKit          3D

 13 13  0  0  0  0  0  0  0  0999 V2000
  -21.9508    5.4172    6.3915 O   0  0  0  0  0  0  0  0  0  0  0  0
  -23.0324    4.4970    6.1820 C   0  0  0  0  0  0  0  0  0  0  0  0
  -22.8702    4.0410    4.7371 C   0  0  0  0  0  0  0  0  0  0  0  0
  -22.4825    2.7675    4.3335 C   0  0  0  0  0  0  0  0  0  0  0  0
  -22.4581    2.7723    2.9824 C   0  0  0  0  0  0  0  0  0  0  0  0
  -22.8234    4.0177    2.6161 N   0  0  0  0  0  0  0  0  0  0  0  0
  -23.0795    4.8095    3.6908 N   0  0  0  0  0  0  0  0  0  0  0  0
  -21.4724    5.4377    5.5319 H   0  0  0  0  0  0  0  0  0  0  0  0
  -23.9757    5.0141    6.2896 H   0  0  0  0  0  0  0  0  0  0  0  0
  -22.9187    3.6459    6.8399 H   0  0  0  0  0  0  0  0  0  0  0  0
  -22.2489    1.9463    4.9615 H   0  0  0  0  0  0  0  0  0  0  0  0
  -22.2197    2.0175    2.2784 H   0  0  0  0  0  0  0  0  0  0  0  0
  -22.9052    4.3534    1.6372 H   0  0  0  0  0  0  0  0  0  0  0  0
  1  2  1  0
  1  8  1  0
  2  3  1  0
  2  9  1  0
  2 10  1  0
  3  4  1  0
  3  7  2  0
  4  5  2  0
  4 11  1  0
  5  6  1  0
  5 12  1  0
  6  7  1  0
  6 13  1  0
M  END
> <intraLJ>
0.280     

> <intraEL>
0.189     

> <intraDihe>
6.124     

> <interLJ>
0.000     

> <interEJ>
0.000     

> <gridLJ>
-4.480    

> <gridEL>
0.000     

> <totalE>
2.113     

> <LGFE>
-4.480  

> <LE>
-0.640  

> <SMILES>
OCc1cc[nH]n1

> <atom.dprop.GFE>
-0.94 -0.36 -0.25 -0.21 -0.32 -1 -1.4 0 0 0 0 0 0

> <atom.prop.CLASS>
MEOO PRPC GEHC GEHC GEHC GEND GENA NCLA NCLA NCLA NCLA NCLA NCLA

$$$$
