74_2
     RDKit          3D

 12 12  0  0  0  0  0  0  0  0999 V2000
   18.9018   -1.6181  -36.5698 O   0  0  0  0  0  0  0  0  0  0  0  0
   18.4819   -1.8881  -35.4441 C   0  0  0  0  0  0  0  0  0  0  0  0
   17.7953   -0.9962  -34.5582 C   0  0  0  0  0  0  0  0  0  0  0  0
   17.3784   -1.4204  -33.3311 C   0  0  0  0  0  0  0  0  0  0  0  0
   17.6288   -2.7658  -32.9299 C   0  0  0  0  0  0  0  0  0  0  0  0
   18.2835   -3.6214  -33.7703 C   0  0  0  0  0  0  0  0  0  0  0  0
   18.6983   -3.1682  -35.0120 N   0  0  0  0  0  0  0  0  0  0  0  0
   17.6270   -0.0061  -34.8921 H   0  0  0  0  0  0  0  0  0  0  0  0
   16.8694   -0.7617  -32.6733 H   0  0  0  0  0  0  0  0  0  0  0  0
   17.3027   -3.0916  -31.9749 H   0  0  0  0  0  0  0  0  0  0  0  0
   18.5084   -4.6357  -33.5474 H   0  0  0  0  0  0  0  0  0  0  0  0
   19.1941   -3.7800  -35.6757 H   0  0  0  0  0  0  0  0  0  0  0  0
  1  2  2  0
  2  3  1  0
  2  7  1  0
  3  4  2  0
  3  8  1  0
  4  5  1  0
  4  9  1  0
  5  6  2  0
  5 10  1  0
  6  7  1  0
  6 11  1  0
  7 12  1  0
M  END
> <intraLJ>
7.690     

> <intraEL>
-2.793    

> <intraDihe>
0.000     

> <interLJ>
0.000     

> <interEJ>
0.000     

> <gridLJ>
-2.906    

> <gridEL>
0.000     

> <totalE>
1.991     

> <LGFE>
-2.906  

> <LE>
-0.415  

> <SMILES>
O=c1cccc[nH]1

> <atom.dprop.GFE>
-1.4 -0.12 -0.21 -0.21 -0.21 -0.18 -0.61 0 0 0 0 0

> <atom.prop.CLASS>
GENA GEHC BENC BENC BENC BENC GEND NCLA NCLA NCLA NCLA NCLA

$$$$
