52_1
     RDKit          3D

 10 10  0  0  0  0  0  0  0  0999 V2000
  -16.3451    8.4624   -4.5729 C   0  0  0  0  0  0  0  0  0  0  0  0
  -15.9276    9.3611   -5.7138 C   0  0  0  0  0  0  0  0  0  0  0  0
  -16.0400    9.1558   -6.9722 N   0  0  0  0  0  0  0  0  0  0  0  0
  -15.5197   10.2567   -7.5800 N   0  0  0  0  0  0  0  0  0  0  0  0
  -15.1003   11.1117   -6.6910 N   0  0  0  0  0  0  0  0  0  0  0  0
  -15.3610   10.5411   -5.5363 N   0  0  0  0  0  0  0  0  0  0  0  0
  -16.7990    7.5661   -4.9978 H   0  0  0  0  0  0  0  0  0  0  0  0
  -17.0665    8.9970   -3.9549 H   0  0  0  0  0  0  0  0  0  0  0  0
  -15.4586    8.2003   -3.9954 H   0  0  0  0  0  0  0  0  0  0  0  0
  -15.1432   10.9756   -4.6243 H   0  0  0  0  0  0  0  0  0  0  0  0
  1  2  1  0
  1  7  1  0
  1  8  1  0
  1  9  1  0
  2  3  2  0
  2  6  1  0
  3  4  1  0
  4  5  2  0
  5  6  1  0
  6 10  1  0
M  END
> <intraLJ>
-0.215    

> <intraEL>
-1.684    

> <intraDihe>
1.140     

> <interLJ>
0.000     

> <interEJ>
0.000     

> <gridLJ>
-4.545    

> <gridEL>
0.000     

> <totalE>
-5.305    

> <LGFE>
-4.545  

> <LE>
-0.758  

> <SMILES>
Cc1nnn[nH]1

> <atom.dprop.GFE>
-0.34 -0.093 -1.3 -1.3 -1.3 -0.17 0 0 0 0

> <atom.prop.CLASS>
PRPC GEHC GENA GENA GENA GEND NCLA NCLA NCLA NCLA

$$$$
