3
     RDKit          3D

  9  9  0  0  0  0  0  0  0  0999 V2000
  -23.8986    2.3944   20.8203 C   0  0  0  0  0  0  0  0  0  0  0  0
  -22.7749    2.1679   21.6063 C   0  0  0  0  0  0  0  0  0  0  0  0
  -22.6192    3.1212   22.4854 N   0  0  0  0  0  0  0  0  0  0  0  0
  -23.6548    3.9730   22.2609 N   0  0  0  0  0  0  0  0  0  0  0  0
  -24.4486    3.5510   21.2518 C   0  0  0  0  0  0  0  0  0  0  0  0
  -24.2550    1.7800   20.0336 H   0  0  0  0  0  0  0  0  0  0  0  0
  -22.1181    1.3398   21.5234 H   0  0  0  0  0  0  0  0  0  0  0  0
  -23.8003    4.8391   22.8131 H   0  0  0  0  0  0  0  0  0  0  0  0
  -25.3043    4.0872   20.9353 H   0  0  0  0  0  0  0  0  0  0  0  0
  1  2  1  0
  1  5  2  0
  1  6  1  0
  2  3  2  0
  2  7  1  0
  3  4  1  0
  4  5  1  0
  4  8  1  0
  5  9  1  0
M  END
> <intraLJ>
-0.423    

> <intraEL>
0.053     

> <intraDihe>
0.000     

> <interLJ>
0.000     

> <interEJ>
0.000     

> <gridLJ>
-2.060    

> <gridEL>
0.000     

> <totalE>
-2.429    

> <LGFE>
-2.060  

> <LE>
-0.412  

> <SMILES>
c1cn[nH]c1

> <atom.dprop.GFE>
0.64 -0.21 -1.9 -1.4 0.77 0 0 0 0

> <atom.prop.CLASS>
GEHC GEHC GENA GEND GEHC NCLA NCLA NCLA NCLA

$$$$
