61_1
     RDKit          3D

 16 16  0  0  0  0  0  0  0  0999 V2000
   18.5098   -1.5913  -33.7606 C   0  0  0  0  0  0  0  0  0  0  0  0
   17.1582   -2.0012  -34.3777 C   0  0  0  0  0  0  0  0  0  0  0  0
   17.1193   -3.4489  -34.7224 N   0  0  0  0  0  0  0  0  0  0  0  0
   18.2627   -3.7802  -35.6146 C   0  0  0  0  0  0  0  0  0  0  0  0
   19.6154   -3.3669  -35.0011 C   0  0  0  0  0  0  0  0  0  0  0  0
   19.6529   -1.9200  -34.6546 N   0  0  0  0  0  0  0  0  0  0  0  0
   18.6223   -2.1219  -32.8131 H   0  0  0  0  0  0  0  0  0  0  0  0
   18.4974   -0.5190  -33.5583 H   0  0  0  0  0  0  0  0  0  0  0  0
   17.0050   -1.4068  -35.2802 H   0  0  0  0  0  0  0  0  0  0  0  0
   16.3599   -1.7698  -33.6718 H   0  0  0  0  0  0  0  0  0  0  0  0
   16.2411   -3.6827  -35.1692 H   0  0  0  0  0  0  0  0  0  0  0  0
   18.1489   -3.2527  -36.5646 H   0  0  0  0  0  0  0  0  0  0  0  0
   18.2754   -4.8533  -35.8136 H   0  0  0  0  0  0  0  0  0  0  0  0
   20.4120   -3.5965  -35.7108 H   0  0  0  0  0  0  0  0  0  0  0  0
   19.7717   -3.9628  -34.0996 H   0  0  0  0  0  0  0  0  0  0  0  0
   20.5301   -1.6866  -34.2081 H   0  0  0  0  0  0  0  0  0  0  0  0
  1  2  1  0
  1  6  1  0
  1  7  1  0
  1  8  1  0
  2  3  1  0
  2  9  1  0
  2 10  1  0
  3  4  1  0
  3 11  1  0
  4  5  1  0
  4 12  1  0
  4 13  1  0
  5  6  1  0
  5 14  1  0
  5 15  1  0
  6 16  1  0
M  END
> <intraLJ>
1.218     

> <intraEL>
5.660     

> <intraDihe>
4.795     

> <interLJ>
0.000     

> <interEJ>
0.000     

> <gridLJ>
-2.492    

> <gridEL>
0.000     

> <totalE>
9.181     

> <LGFE>
-2.492  

> <LE>
-0.415  

> <SMILES>
C1CNCCN1

> <atom.dprop.GFE>
-0.38 -0.49 -0.56 -0.35 -0.3 -0.42 0 0 0 0 0 0 0 0 0 0

> <atom.prop.CLASS>
PRPC PRPC GEND PRPC PRPC GEND NCLA NCLA NCLA NCLA NCLA NCLA NCLA NCLA NCLA NCLA

$$$$
