40_2
     RDKit          3D

 10 10  0  0  0  0  0  0  0  0999 V2000
  -16.0740   -2.8659   25.5908 O   0  0  0  0  0  0  0  0  0  0  0  0
  -17.0927   -3.6072   25.3860 C   0  0  0  0  0  0  0  0  0  0  0  0
  -17.2738   -4.8042   26.0943 C   0  0  0  0  0  0  0  0  0  0  0  0
  -18.3857   -5.5716   25.8419 C   0  0  0  0  0  0  0  0  0  0  0  0
  -19.3187   -5.2181   24.9294 N   0  0  0  0  0  0  0  0  0  0  0  0
  -19.1583   -4.0753   24.2439 N   0  0  0  0  0  0  0  0  0  0  0  0
  -18.0971   -3.2940   24.4511 C   0  0  0  0  0  0  0  0  0  0  0  0
  -16.5498   -5.0896   26.8092 H   0  0  0  0  0  0  0  0  0  0  0  0
  -18.5354   -6.4764   26.3684 H   0  0  0  0  0  0  0  0  0  0  0  0
  -18.0056   -2.4024   23.8920 H   0  0  0  0  0  0  0  0  0  0  0  0
  1  2  1  0
  2  3  2  0
  2  7  1  0
  3  4  1  0
  3  8  1  0
  4  5  2  0
  4  9  1  0
  5  6  1  0
  6  7  2  0
  7 10  1  0
M  CHG  1   1  -1
M  END
> <intraLJ>
15.492    

> <intraEL>
-6.927    

> <intraDihe>
0.000     

> <interLJ>
0.000     

> <interEJ>
0.000     

> <gridLJ>
-2.664    

> <gridEL>
0.000     

> <totalE>
5.901     

> <LGFE>
-2.664  

> <LE>
-0.381  

> <SMILES>
[O-]c1ccnnc1

> <atom.dprop.GFE>
0 0.65 -0.045 -0.12 -1.5 -1.6 -0.07 0 0 0

> <atom.prop.CLASS>
NCLA ACEC BENC BENC GENA GENA BENC NCLA NCLA NCLA

$$$$
