81_2
     RDKit          3D

 19 19  0  0  1  0  0  0  0  0999 V2000
  -11.0019   -6.5455   17.2503 N   0  0  0  0  0  0  0  0  0  0  0  0
  -10.2181   -5.2980   17.0691 C   0  0  0  0  0  0  0  0  0  0  0  0
   -9.6881   -4.8162   18.4290 C   0  0  0  0  0  0  0  0  0  0  0  0
  -10.7700   -4.4298   19.4325 C   0  0  0  0  0  0  0  0  0  0  0  0
  -10.0507   -3.4043   20.3103 C   0  0  0  0  0  0  0  0  0  0  0  0
   -8.8167   -2.9975   19.5012 C   0  0  0  0  0  0  0  0  0  0  0  0
   -8.9762   -3.6083   18.2292 O   0  0  0  0  0  0  0  0  0  0  0  0
  -11.2558   -6.9713   16.3722 H   0  0  0  0  0  0  0  0  0  0  0  0
  -11.8163   -6.3726   17.8212 H   0  0  0  0  0  0  0  0  0  0  0  0
  -10.3999   -7.1615   17.7947 H   0  0  0  0  0  0  0  0  0  0  0  0
   -9.3523   -5.5075   16.4360 H   0  0  0  0  0  0  0  0  0  0  0  0
  -10.8115   -4.5094   16.5996 H   0  0  0  0  0  0  0  0  0  0  0  0
   -9.0235   -5.5647   18.8662 H   0  0  0  0  0  0  0  0  0  0  0  0
  -11.6104   -3.9508   18.9252 H   0  0  0  0  0  0  0  0  0  0  0  0
  -11.1089   -5.2883   20.0153 H   0  0  0  0  0  0  0  0  0  0  0  0
   -9.7399   -3.8533   21.2559 H   0  0  0  0  0  0  0  0  0  0  0  0
  -10.6905   -2.5403   20.5010 H   0  0  0  0  0  0  0  0  0  0  0  0
   -7.9168   -3.3791   19.9878 H   0  0  0  0  0  0  0  0  0  0  0  0
   -8.7489   -1.9114   19.4073 H   0  0  0  0  0  0  0  0  0  0  0  0
  1  2  1  0
  1  8  1  0
  1  9  1  0
  1 10  1  0
  2  3  1  0
  2 11  1  0
  2 12  1  0
  3  4  1  0
  3  7  1  0
  3 13  1  0
  4  5  1  0
  4 14  1  0
  4 15  1  0
  5  6  1  0
  5 16  1  0
  5 17  1  0
  6  7  1  0
  6 18  1  0
  6 19  1  0
M  CHG  1   1   1
M  END
> <intraLJ>
-0.744    

> <intraEL>
2.670     

> <intraDihe>
7.602     

> <interLJ>
0.000     

> <interEJ>
0.000     

> <gridLJ>
-3.032    

> <gridEL>
0.000     

> <totalE>
6.496     

> <LGFE>
-3.032  

> <LE>
-0.433  

> <SMILES>
[NH3+]CC1CCCO1

> <atom.dprop.GFE>
-2.4 0.13 -0.1 -0.051 -0.13 -0.13 -0.31 0 0 0 0 0 0 0 0 0 0 0 0

> <atom.prop.CLASS>
MAMN PRPC PRPC PRPC PRPC PRPC GENA NCLA NCLA NCLA NCLA NCLA NCLA NCLA NCLA NCLA NCLA NCLA NCLA

$$$$
