46_2
     RDKit          3D

 15 15  0  0  0  0  0  0  0  0999 V2000
  -10.7566  -14.7308   -3.0277 C   0  0  0  0  0  0  0  0  0  0  0  0
   -9.5627  -14.0376   -3.7104 C   0  0  0  0  0  0  0  0  0  0  0  0
  -10.1900  -12.8735   -4.4721 C   0  0  0  0  0  0  0  0  0  0  0  0
  -11.4223  -12.5637   -3.7264 N   0  0  0  0  0  0  0  0  0  0  0  0
  -11.9657  -13.9092   -3.4682 C   0  0  0  0  0  0  0  0  0  0  0  0
  -10.6481  -14.6860   -1.9426 H   0  0  0  0  0  0  0  0  0  0  0  0
  -10.8589  -15.7692   -3.3507 H   0  0  0  0  0  0  0  0  0  0  0  0
   -9.0450  -14.7113   -4.3967 H   0  0  0  0  0  0  0  0  0  0  0  0
   -8.8652  -13.6632   -2.9577 H   0  0  0  0  0  0  0  0  0  0  0  0
  -10.4393  -13.2185   -5.4795 H   0  0  0  0  0  0  0  0  0  0  0  0
   -9.5096  -12.0194   -4.5406 H   0  0  0  0  0  0  0  0  0  0  0  0
  -12.0599  -11.9599   -4.2320 H   0  0  0  0  0  0  0  0  0  0  0  0
  -11.1694  -12.1427   -2.8421 H   0  0  0  0  0  0  0  0  0  0  0  0
  -12.7550  -13.9102   -2.7114 H   0  0  0  0  0  0  0  0  0  0  0  0
  -12.3528  -14.3405   -4.3960 H   0  0  0  0  0  0  0  0  0  0  0  0
  1  2  1  0
  1  5  1  0
  1  6  1  0
  1  7  1  0
  2  3  1  0
  2  8  1  0
  2  9  1  0
  3  4  1  0
  3 10  1  0
  3 11  1  0
  4  5  1  0
  4 12  1  0
  4 13  1  0
  5 14  1  0
  5 15  1  0
M  CHG  1   4   1
M  END
> <intraLJ>
-0.364    

> <intraEL>
9.610     

> <intraDihe>
5.719     

> <interLJ>
0.000     

> <interEJ>
0.000     

> <gridLJ>
-2.380    

> <gridEL>
0.000     

> <totalE>
12.586    

> <LGFE>
-2.380  

> <LE>
-0.476  

> <SMILES>
C1CC[NH2+]C1

> <atom.dprop.GFE>
-0.2 -0.21 -0.22 -1.6 -0.16 0 0 0 0 0 0 0 0 0 0

> <atom.prop.CLASS>
PRPC PRPC PRPC MAMN PRPC NCLA NCLA NCLA NCLA NCLA NCLA NCLA NCLA NCLA NCLA

$$$$
