12
     RDKit          3D

 10 10  0  0  0  0  0  0  0  0999 V2000
   22.8502   14.1678   -3.7712 N   0  0  0  0  0  0  0  0  0  0  0  0
   21.8136   14.5300   -4.0940 C   0  0  0  0  0  0  0  0  0  0  0  0
   20.4921   14.9728   -4.4830 C   0  0  0  0  0  0  0  0  0  0  0  0
   19.3278   14.6187   -3.8762 C   0  0  0  0  0  0  0  0  0  0  0  0
   18.3517   15.2479   -4.5476 N   0  0  0  0  0  0  0  0  0  0  0  0
   18.9272   15.9647   -5.5386 C   0  0  0  0  0  0  0  0  0  0  0  0
   20.2187   15.8224   -5.5286 N   0  0  0  0  0  0  0  0  0  0  0  0
   19.1409   13.9866   -3.0456 H   0  0  0  0  0  0  0  0  0  0  0  0
   17.3355   15.2011   -4.3528 H   0  0  0  0  0  0  0  0  0  0  0  0
   18.3402   16.5476   -6.2032 H   0  0  0  0  0  0  0  0  0  0  0  0
  1  2  3  0
  2  3  1  0
  3  4  2  0
  3  7  1  0
  4  5  1  0
  4  8  1  0
  5  6  1  0
  5  9  1  0
  6  7  2  0
  6 10  1  0
M  END
> <intraLJ>
-0.793    

> <intraEL>
2.828     

> <intraDihe>
0.000     

> <interLJ>
0.000     

> <interEJ>
0.000     

> <gridLJ>
-2.482    

> <gridEL>
0.000     

> <totalE>
-0.446    

> <LGFE>
-2.482  

> <LE>
-0.355  

> <SMILES>
N#Cc1c[nH]cn1

> <atom.dprop.GFE>
-0.93 0 -0.18 -0.12 -0.001 -0.14 -1.1 0 0 0

> <atom.prop.CLASS>
GENA NCLA GEHC GEHC GEND GEHC GENA NCLA NCLA NCLA

$$$$
