48_1
     RDKit          3D

 17 16  0  0  1  0  0  0  0  0999 V2000
   23.7070   10.1343  -16.8714 C   0  0  0  0  0  0  0  0  0  0  0  0
   23.4608   11.5761  -17.3438 C   0  0  0  0  0  0  0  0  0  0  0  0
   22.0175   12.0600  -17.1164 C   0  0  0  0  0  0  0  0  0  0  0  0
   21.0775   11.1575  -17.8405 N   0  0  0  0  0  0  0  0  0  0  0  0
   21.8316   13.5606  -17.4971 C   0  0  0  0  0  0  0  0  0  0  0  0
   20.9272   13.9558  -18.2186 O   0  0  0  0  0  0  0  0  0  0  0  0
   22.6581   14.4553  -16.9753 N   0  0  0  0  0  0  0  0  0  0  0  0
   24.7507    9.8676  -17.0374 H   0  0  0  0  0  0  0  0  0  0  0  0
   23.0736    9.4426  -17.4288 H   0  0  0  0  0  0  0  0  0  0  0  0
   23.4802   10.0467  -15.8085 H   0  0  0  0  0  0  0  0  0  0  0  0
   23.6988   11.6543  -18.4062 H   0  0  0  0  0  0  0  0  0  0  0  0
   24.1374   12.2387  -16.8014 H   0  0  0  0  0  0  0  0  0  0  0  0
   21.8278   12.0020  -16.0430 H   0  0  0  0  0  0  0  0  0  0  0  0
   21.4167   11.0399  -18.7867 H   0  0  0  0  0  0  0  0  0  0  0  0
   20.1602   11.5782  -17.8843 H   0  0  0  0  0  0  0  0  0  0  0  0
   22.4925   15.4167  -17.2235 H   0  0  0  0  0  0  0  0  0  0  0  0
   23.4064   14.1737  -16.3676 H   0  0  0  0  0  0  0  0  0  0  0  0
  1  2  1  0
  1  8  1  0
  1  9  1  0
  1 10  1  0
  2  3  1  0
  2 11  1  0
  2 12  1  0
  3  4  1  0
  3  5  1  0
  3 13  1  0
  4 14  1  0
  4 15  1  0
  5  6  2  0
  5  7  1  0
  7 16  1  0
  7 17  1  0
M  END
> <intraLJ>
0.853     

> <intraEL>
5.316     

> <intraDihe>
0.830     

> <interLJ>
0.000     

> <interEJ>
0.000     

> <gridLJ>
-2.171    

> <gridEL>
0.000     

> <totalE>
4.827     

> <LGFE>
-2.171  

> <LE>
-0.310  

> <SMILES>
CCC(N)C(N)=O

> <atom.dprop.GFE>
-0.33 -0.37 -0.43 -0.4 0 -0.56 -0.075 0 0 0 0 0 0 0 0 0 0

> <atom.prop.CLASS>
PRPC PRPC PRPC GEND NCLA GENA GEND NCLA NCLA NCLA NCLA NCLA NCLA NCLA NCLA NCLA NCLA

$$$$
