38
     RDKit          3D

 11 11  0  0  0  0  0  0  0  0999 V2000
   22.0872    1.5144  -29.3072 C   0  0  0  0  0  0  0  0  0  0  0  0
   21.9483    2.8097  -28.8271 C   0  0  0  0  0  0  0  0  0  0  0  0
   21.9969    3.8803  -29.7158 C   0  0  0  0  0  0  0  0  0  0  0  0
   22.1737    3.6970  -31.0241 N   0  0  0  0  0  0  0  0  0  0  0  0
   22.3100    2.4605  -31.5041 C   0  0  0  0  0  0  0  0  0  0  0  0
   22.2711    1.3448  -30.6720 C   0  0  0  0  0  0  0  0  0  0  0  0
   22.0536    0.6818  -28.6519 H   0  0  0  0  0  0  0  0  0  0  0  0
   21.8058    2.9849  -27.7927 H   0  0  0  0  0  0  0  0  0  0  0  0
   21.8918    4.8745  -29.3621 H   0  0  0  0  0  0  0  0  0  0  0  0
   22.4499    2.3449  -32.5489 H   0  0  0  0  0  0  0  0  0  0  0  0
   22.3824    0.3747  -31.0816 H   0  0  0  0  0  0  0  0  0  0  0  0
  1  2  2  0
  1  6  1  0
  1  7  1  0
  2  3  1  0
  2  8  1  0
  3  4  2  0
  3  9  1  0
  4  5  1  0
  5  6  2  0
  5 10  1  0
  6 11  1  0
M  END
> <intraLJ>
12.613    

> <intraEL>
0.241     

> <intraDihe>
0.000     

> <interLJ>
0.000     

> <interEJ>
0.000     

> <gridLJ>
-2.336    

> <gridEL>
0.000     

> <totalE>
10.518    

> <LGFE>
-2.336  

> <LE>
-0.389  

> <SMILES>
c1ccncc1

> <atom.dprop.GFE>
-0.12 -0.14 -0.18 -1.5 -0.26 -0.13 0 0 0 0 0

> <atom.prop.CLASS>
BENC BENC GEHC GENA GEHC BENC NCLA NCLA NCLA NCLA NCLA

$$$$
