18
     RDKit          3D

 13 13  0  0  0  0  0  0  0  0999 V2000
   15.9208    3.1284   -4.5607 O   0  0  0  0  0  0  0  0  0  0  0  0
   16.3249    4.3788   -3.9742 C   0  0  0  0  0  0  0  0  0  0  0  0
   15.9326    5.6047   -4.9536 C   0  0  0  0  0  0  0  0  0  0  0  0
   17.6207    5.8126   -5.3293 S   0  0  0  0  0  0  0  0  0  0  0  0
   18.0891    7.0770   -4.8741 O   0  0  0  0  0  0  0  0  0  0  0  0
   17.9254    5.3765   -6.6492 O   0  0  0  0  0  0  0  0  0  0  0  0
   17.9229    4.5717   -4.1464 C   0  0  0  0  0  0  0  0  0  0  0  0
   14.9738    2.9602   -4.4140 H   0  0  0  0  0  0  0  0  0  0  0  0
   15.9668    4.4747   -2.9579 H   0  0  0  0  0  0  0  0  0  0  0  0
   15.4390    6.3613   -4.3585 H   0  0  0  0  0  0  0  0  0  0  0  0
   15.2594    5.2242   -5.7104 H   0  0  0  0  0  0  0  0  0  0  0  0
   18.3405    3.6239   -4.4602 H   0  0  0  0  0  0  0  0  0  0  0  0
   18.3286    4.8617   -3.1868 H   0  0  0  0  0  0  0  0  0  0  0  0
  1  2  1  0
  1  8  1  0
  2  3  1  0
  2  7  1  0
  2  9  1  0
  3  4  1  0
  3 10  1  0
  3 11  1  0
  4  5  2  0
  4  6  2  0
  4  7  1  0
  7 12  1  0
  7 13  1  0
M  END
> <intraLJ>
0.307     

> <intraEL>
-1.458    

> <intraDihe>
23.153    

> <interLJ>
0.000     

> <interEJ>
0.000     

> <gridLJ>
-3.205    

> <gridEL>
0.000     

> <totalE>
18.797    

> <LGFE>
-3.205  

> <LE>
-0.458  

> <SMILES>
O=S1(=O)CC(O)C1

> <atom.dprop.GFE>
-0.58 -0.25 -0.38 0 -0.93 -0.78 -0.28 0 0 0 0 0 0

> <atom.prop.CLASS>
MEOO PRPC PRPC NCLA GENA GENA PRPC NCLA NCLA NCLA NCLA NCLA NCLA

$$$$
