39_1
     RDKit          3D

 11 11  0  0  0  0  0  0  0  0999 V2000
   11.9898   16.0526   -8.2327 O   0  0  0  0  0  0  0  0  0  0  0  0
   10.8721   16.1555   -8.7437 C   0  0  0  0  0  0  0  0  0  0  0  0
    9.6639   15.5571   -8.2757 C   0  0  0  0  0  0  0  0  0  0  0  0
    8.5002   15.7689   -8.9591 C   0  0  0  0  0  0  0  0  0  0  0  0
    8.4995   16.5819  -10.1315 C   0  0  0  0  0  0  0  0  0  0  0  0
    9.5898   17.1348  -10.5707 N   0  0  0  0  0  0  0  0  0  0  0  0
   10.7653   16.9235   -9.8832 N   0  0  0  0  0  0  0  0  0  0  0  0
    9.7061   14.9602   -7.4028 H   0  0  0  0  0  0  0  0  0  0  0  0
    7.5902   15.3355   -8.6327 H   0  0  0  0  0  0  0  0  0  0  0  0
    7.5943   16.7428  -10.6586 H   0  0  0  0  0  0  0  0  0  0  0  0
   11.6416   17.3569  -10.2222 H   0  0  0  0  0  0  0  0  0  0  0  0
  1  2  2  0
  2  3  1  0
  2  7  1  0
  3  4  2  0
  3  8  1  0
  4  5  1  0
  4  9  1  0
  5  6  2  0
  5 10  1  0
  6  7  1  0
  7 11  1  0
M  END
> <intraLJ>
10.206    

> <intraEL>
-0.642    

> <intraDihe>
0.000     

> <interLJ>
0.000     

> <interEJ>
0.000     

> <gridLJ>
-2.315    

> <gridEL>
0.000     

> <totalE>
7.249     

> <LGFE>
-2.315  

> <LE>
-0.331  

> <SMILES>
O=c1cccn[nH]1

> <atom.dprop.GFE>
-0.8 -0.13 -0.13 -0.14 -0.14 -0.42 -0.55 0 0 0 0

> <atom.prop.CLASS>
GENA GEHC BENC BENC BENC GENA GEND NCLA NCLA NCLA NCLA

$$$$
