23_3
     RDKit          3D

 11 11  0  0  0  0  0  0  0  0999 V2000
   10.8714   14.0853  -36.3806 O   0  0  0  0  0  0  0  0  0  0  0  0
    9.9164   13.3932  -36.6990 C   0  0  0  0  0  0  0  0  0  0  0  0
    9.8064   13.0833  -38.0238 N   0  0  0  0  0  0  0  0  0  0  0  0
    8.7835   12.3142  -38.5208 C   0  0  0  0  0  0  0  0  0  0  0  0
    7.8612   11.8596  -37.6298 C   0  0  0  0  0  0  0  0  0  0  0  0
    7.9917   12.1922  -36.2514 C   0  0  0  0  0  0  0  0  0  0  0  0
    8.9583   12.9135  -35.8126 N   0  0  0  0  0  0  0  0  0  0  0  0
   10.5489   13.4703  -38.6223 H   0  0  0  0  0  0  0  0  0  0  0  0
    8.7833   12.1270  -39.5670 H   0  0  0  0  0  0  0  0  0  0  0  0
    7.0461   11.2617  -37.9409 H   0  0  0  0  0  0  0  0  0  0  0  0
    7.2704   11.8351  -35.5602 H   0  0  0  0  0  0  0  0  0  0  0  0
  1  2  2  0
  2  3  1  0
  2  7  1  0
  3  4  1  0
  3  8  1  0
  4  5  2  0
  4  9  1  0
  5  6  1  0
  5 10  1  0
  6  7  2  0
  6 11  1  0
M  END
> <intraLJ>
11.692    

> <intraEL>
-4.846    

> <intraDihe>
0.000     

> <interLJ>
0.000     

> <interEJ>
0.000     

> <gridLJ>
-3.945    

> <gridEL>
0.000     

> <totalE>
2.901     

> <LGFE>
-3.945  

> <LE>
-0.564  

> <SMILES>
O=c1nccc[nH]1

> <atom.dprop.GFE>
-1.3 -0.19 -0.56 -0.082 -0.11 -0.18 -1.6 0 0 0 0

> <atom.prop.CLASS>
GENA GEHC GEND BENC BENC BENC GENA NCLA NCLA NCLA NCLA

$$$$
