65
     RDKit          3D

 12 12  0  0  0  0  0  0  0  0999 V2000
  -37.0070    6.8720   14.9670 N   0  0  0  0  0  0  0  0  0  0  0  0
  -36.5862    8.1365   14.9372 C   0  0  0  0  0  0  0  0  0  0  0  0
  -37.4384    9.0595   15.3611 N   0  0  0  0  0  0  0  0  0  0  0  0
  -37.0274   10.3158   15.3362 C   0  0  0  0  0  0  0  0  0  0  0  0
  -35.7517   10.6251   14.8882 C   0  0  0  0  0  0  0  0  0  0  0  0
  -34.9236    9.5922   14.4707 C   0  0  0  0  0  0  0  0  0  0  0  0
  -35.3506    8.3421   14.5018 N   0  0  0  0  0  0  0  0  0  0  0  0
  -36.2377    6.1978   14.9720 H   0  0  0  0  0  0  0  0  0  0  0  0
  -37.7865    6.7287   15.6148 H   0  0  0  0  0  0  0  0  0  0  0  0
  -37.6898   11.0766   15.6653 H   0  0  0  0  0  0  0  0  0  0  0  0
  -35.4156   11.6279   14.8647 H   0  0  0  0  0  0  0  0  0  0  0  0
  -33.9407    9.7878   14.1223 H   0  0  0  0  0  0  0  0  0  0  0  0
  1  2  1  0
  1  8  1  0
  1  9  1  0
  2  3  2  0
  2  7  1  0
  3  4  1  0
  4  5  2  0
  4 10  1  0
  5  6  1  0
  5 11  1  0
  6  7  2  0
  6 12  1  0
M  END
> <intraLJ>
20.123    

> <intraEL>
-18.333   

> <intraDihe>
1.049     

> <interLJ>
0.000     

> <interEJ>
0.000     

> <gridLJ>
-3.063    

> <gridEL>
0.000     

> <totalE>
-0.224    

> <LGFE>
-3.063  

> <LE>
-0.438  

> <SMILES>
Nc1ncccn1

> <atom.dprop.GFE>
-0.84 -0.27 -0.71 -0.11 -0.15 -0.2 -0.79 0 0 0 0 0

> <atom.prop.CLASS>
GEND GEHC GENA BENC BENC BENC GENA NCLA NCLA NCLA NCLA NCLA

$$$$
