10_1
     RDKit          3D

  8  7  0  0  0  0  0  0  0  0999 V2000
  -16.8704   11.0960   -5.7118 O   0  0  0  0  0  0  0  0  0  0  0  0
  -16.0515   10.2039   -6.5122 P   0  0  0  0  0  0  0  0  0  0  0  0
  -15.1492    9.3490   -5.6533 O   0  0  0  0  0  0  0  0  0  0  0  0
  -16.8922    9.2630   -7.3430 O   0  0  0  0  0  0  0  0  0  0  0  0
  -15.1626   10.9643   -7.4677 O   0  0  0  0  0  0  0  0  0  0  0  0
  -15.3266    9.5957   -4.7404 H   0  0  0  0  0  0  0  0  0  0  0  0
  -17.8122    9.4744   -7.1489 H   0  0  0  0  0  0  0  0  0  0  0  0
  -15.3455   11.8991   -7.3273 H   0  0  0  0  0  0  0  0  0  0  0  0
  1  2  2  0
  2  3  1  0
  2  4  1  0
  2  5  1  0
  3  6  1  0
  4  7  1  0
  5  8  1  0
M  END
> <intraLJ>
-0.194    

> <intraEL>
-23.203   

> <intraDihe>
5.381     

> <interLJ>
0.000     

> <interEJ>
0.000     

> <gridLJ>
-3.288    

> <gridEL>
0.000     

> <totalE>
-21.304   

> <LGFE>
-3.288  

> <LE>
-0.658  

> <SMILES>
O=P(O)(O)O

> <atom.dprop.GFE>
-0.39 0 -0.71 -1 -1.1 0 0 0

> <atom.prop.CLASS>
GENA NCLA MEOO MEOO MEOO NCLA NCLA NCLA

$$$$
