68_2
     RDKit          3D

 18 17  0  0  1  0  0  0  0  0999 V2000
  -24.5133   14.3566   18.5867 C   0  0  0  0  0  0  0  0  0  0  0  0
  -25.1015   13.1557   19.3208 C   0  0  0  0  0  0  0  0  0  0  0  0
  -24.0587   12.1325   19.4824 N   0  0  0  0  0  0  0  0  0  0  0  0
  -26.3263   12.6107   18.5692 C   0  0  0  0  0  0  0  0  0  0  0  0
  -27.4459   13.6377   18.4960 C   0  0  0  0  0  0  0  0  0  0  0  0
  -27.7677   14.1322   17.4262 O   0  0  0  0  0  0  0  0  0  0  0  0
  -28.0317   14.0261   19.6093 N   0  0  0  0  0  0  0  0  0  0  0  0
  -25.2680   15.1387   18.4937 H   0  0  0  0  0  0  0  0  0  0  0  0
  -24.1783   14.0729   17.5876 H   0  0  0  0  0  0  0  0  0  0  0  0
  -23.6705   14.7633   19.1472 H   0  0  0  0  0  0  0  0  0  0  0  0
  -25.4406   13.4852   20.3090 H   0  0  0  0  0  0  0  0  0  0  0  0
  -23.7167   11.8151   18.5895 H   0  0  0  0  0  0  0  0  0  0  0  0
  -24.5046   11.3438   19.9610 H   0  0  0  0  0  0  0  0  0  0  0  0
  -23.2999   12.4770   20.0502 H   0  0  0  0  0  0  0  0  0  0  0  0
  -26.7051   11.7134   19.0565 H   0  0  0  0  0  0  0  0  0  0  0  0
  -26.0316   12.3530   17.5515 H   0  0  0  0  0  0  0  0  0  0  0  0
  -28.7608   14.7194   19.5269 H   0  0  0  0  0  0  0  0  0  0  0  0
  -27.7789   13.6501   20.5078 H   0  0  0  0  0  0  0  0  0  0  0  0
  1  2  1  0
  1  8  1  0
  1  9  1  0
  1 10  1  0
  2  3  1  0
  2  4  1  0
  2 11  1  0
  3 12  1  0
  3 13  1  0
  3 14  1  0
  4  5  1  0
  4 15  1  0
  4 16  1  0
  5  6  2  0
  5  7  1  0
  7 17  1  0
  7 18  1  0
M  CHG  1   3   1
M  END
> <intraLJ>
0.800     

> <intraEL>
-7.283    

> <intraDihe>
0.090     

> <interLJ>
0.000     

> <interEJ>
0.000     

> <gridLJ>
-3.820    

> <gridEL>
0.000     

> <totalE>
-10.213   

> <LGFE>
-3.820  

> <LE>
-0.546  

> <SMILES>
CC([NH3+])CC(N)=O

> <atom.dprop.GFE>
0.12 -0.15 -2.4 -0.24 0 -0.79 -0.35 0 0 0 0 0 0 0 0 0 0 0

> <atom.prop.CLASS>
PRPC PRPC MAMN PRPC NCLA GENA GEND NCLA NCLA NCLA NCLA NCLA NCLA NCLA NCLA NCLA NCLA NCLA

$$$$
