8
     RDKit          3D

  9  9  0  0  0  0  0  0  0  0999 V2000
  -16.8003   12.4766  -10.0801 N   0  0  0  0  0  0  0  0  0  0  0  0
  -16.6217   11.7323   -9.2290 C   0  0  0  0  0  0  0  0  0  0  0  0
  -16.4221   10.7881   -8.1565 C   0  0  0  0  0  0  0  0  0  0  0  0
  -17.4081   10.0025   -7.5639 C   0  0  0  0  0  0  0  0  0  0  0  0
  -16.7840    9.2826   -6.6220 C   0  0  0  0  0  0  0  0  0  0  0  0
  -15.4945    9.6155   -6.6458 O   0  0  0  0  0  0  0  0  0  0  0  0
  -15.2800   10.5389   -7.5895 N   0  0  0  0  0  0  0  0  0  0  0  0
  -18.4392    9.9756   -7.8031 H   0  0  0  0  0  0  0  0  0  0  0  0
  -17.1466    8.5602   -5.9345 H   0  0  0  0  0  0  0  0  0  0  0  0
  1  2  3  0
  2  3  1  0
  3  4  1  0
  3  7  2  0
  4  5  2  0
  4  8  1  0
  5  6  1  0
  5  9  1  0
  6  7  1  0
M  END
> <intraLJ>
-0.818    

> <intraEL>
1.724     

> <intraDihe>
0.000     

> <interLJ>
0.000     

> <interEJ>
0.000     

> <gridLJ>
-3.816    

> <gridEL>
0.000     

> <totalE>
-2.909    

> <LGFE>
-3.816  

> <LE>
-0.545  

> <SMILES>
N#Cc1ccon1

> <atom.dprop.GFE>
-0.43 0 -0.24 -0.28 -0.27 -1.3 -1.3 0 0

> <atom.prop.CLASS>
GENA NCLA GEHC GEHC GEHC GENA GENA NCLA NCLA

$$$$
