49_2
     RDKit          3D

 19 19  0  0  1  0  0  0  0  0999 V2000
   13.5862   15.1667  -28.6656 O   0  0  0  0  0  0  0  0  0  0  0  0
   14.5126   15.7593  -29.5681 C   0  0  0  0  0  0  0  0  0  0  0  0
   15.5404   16.5713  -28.7586 C   0  0  0  0  0  0  0  0  0  0  0  0
   16.4384   15.7642  -27.8218 C   0  0  0  0  0  0  0  0  0  0  0  0
   16.8072   16.7750  -26.7147 C   0  0  0  0  0  0  0  0  0  0  0  0
   16.0312   18.0418  -27.0735 C   0  0  0  0  0  0  0  0  0  0  0  0
   14.9012   17.5625  -27.8819 N   0  0  0  0  0  0  0  0  0  0  0  0
   12.8721   14.7346  -29.1535 H   0  0  0  0  0  0  0  0  0  0  0  0
   15.0226   14.9759  -30.1334 H   0  0  0  0  0  0  0  0  0  0  0  0
   13.9960   16.4224  -30.2637 H   0  0  0  0  0  0  0  0  0  0  0  0
   16.1837   17.0998  -29.4685 H   0  0  0  0  0  0  0  0  0  0  0  0
   15.8893   14.9255  -27.3890 H   0  0  0  0  0  0  0  0  0  0  0  0
   17.3231   15.4043  -28.3489 H   0  0  0  0  0  0  0  0  0  0  0  0
   17.8800   16.9775  -26.6977 H   0  0  0  0  0  0  0  0  0  0  0  0
   16.4842   16.4009  -25.7409 H   0  0  0  0  0  0  0  0  0  0  0  0
   16.6803   18.6783  -27.6834 H   0  0  0  0  0  0  0  0  0  0  0  0
   15.7127   18.5948  -26.1853 H   0  0  0  0  0  0  0  0  0  0  0  0
   14.4223   18.2646  -28.4358 H   0  0  0  0  0  0  0  0  0  0  0  0
   14.2267   17.0833  -27.3054 H   0  0  0  0  0  0  0  0  0  0  0  0
  1  2  1  0
  1  8  1  0
  2  3  1  0
  2  9  1  0
  2 10  1  0
  3  4  1  0
  3  7  1  0
  3 11  1  0
  4  5  1  0
  4 12  1  0
  4 13  1  0
  5  6  1  0
  5 14  1  0
  5 15  1  0
  6  7  1  0
  6 16  1  0
  6 17  1  0
  7 18  1  0
  7 19  1  0
M  CHG  1   7   1
M  END
> <intraLJ>
1.136     

> <intraEL>
7.845     

> <intraDihe>
8.237     

> <interLJ>
0.000     

> <interEJ>
0.000     

> <gridLJ>
-3.058    

> <gridEL>
0.000     

> <totalE>
14.159    

> <LGFE>
-3.058  

> <LE>
-0.437  

> <SMILES>
OCC1CCC[NH2+]1

> <atom.dprop.GFE>
-0.84 -0.37 -0.27 -0.14 -0.032 -0.022 -1.4 0 0 0 0 0 0 0 0 0 0 0 0

> <atom.prop.CLASS>
MEOO PRPC PRPC PRPC PRPC PRPC MAMN NCLA NCLA NCLA NCLA NCLA NCLA NCLA NCLA NCLA NCLA NCLA NCLA

$$$$
