40_1
     RDKit          3D

 11 11  0  0  0  0  0  0  0  0999 V2000
  -35.9079   -7.8385   20.4931 O   0  0  0  0  0  0  0  0  0  0  0  0
  -34.9694   -7.2198   21.2689 C   0  0  0  0  0  0  0  0  0  0  0  0
  -34.6147   -5.9130   20.9667 C   0  0  0  0  0  0  0  0  0  0  0  0
  -33.6626   -5.3102   21.7663 C   0  0  0  0  0  0  0  0  0  0  0  0
  -33.1020   -5.9658   22.7986 N   0  0  0  0  0  0  0  0  0  0  0  0
  -33.4477   -7.2205   23.0836 N   0  0  0  0  0  0  0  0  0  0  0  0
  -34.3657   -7.8576   22.3443 C   0  0  0  0  0  0  0  0  0  0  0  0
  -36.0942   -8.7538   20.7793 H   0  0  0  0  0  0  0  0  0  0  0  0
  -35.0601   -5.4036   20.1527 H   0  0  0  0  0  0  0  0  0  0  0  0
  -33.3505   -4.3134   21.5844 H   0  0  0  0  0  0  0  0  0  0  0  0
  -34.6118   -8.8538   22.6032 H   0  0  0  0  0  0  0  0  0  0  0  0
  1  2  1  0
  1  8  1  0
  2  3  2  0
  2  7  1  0
  3  4  1  0
  3  9  1  0
  4  5  2  0
  4 10  1  0
  5  6  1  0
  6  7  2  0
  7 11  1  0
M  END
> <intraLJ>
16.086    

> <intraEL>
2.571     

> <intraDihe>
0.000     

> <interLJ>
0.000     

> <interEJ>
0.000     

> <gridLJ>
-2.111    

> <gridEL>
0.000     

> <totalE>
16.547    

> <LGFE>
-2.111  

> <LE>
-0.302  

> <SMILES>
Oc1ccnnc1

> <atom.dprop.GFE>
-0.3 -0.14 -0.16 -0.15 -0.62 -0.59 -0.15 0 0 0 0

> <atom.prop.CLASS>
MEOO BENC BENC BENC GENA GENA BENC NCLA NCLA NCLA NCLA

$$$$
