47_1
     RDKit          3D

 10  9  0  0  0  0  0  0  0  0999 V2000
   17.8175   -2.1479  -19.6161 N   0  0  0  0  0  0  0  0  0  0  0  0
   18.5692   -2.9739  -20.6128 C   0  0  0  0  0  0  0  0  0  0  0  0
   18.9163   -4.4071  -20.1506 C   0  0  0  0  0  0  0  0  0  0  0  0
   19.8546   -4.6603  -19.4087 O   0  0  0  0  0  0  0  0  0  0  0  0
   18.1652   -5.4618  -20.5231 O   0  0  0  0  0  0  0  0  0  0  0  0
   17.7386   -1.1894  -19.9268 H   0  0  0  0  0  0  0  0  0  0  0  0
   18.2882   -2.1818  -18.7188 H   0  0  0  0  0  0  0  0  0  0  0  0
   19.5098   -2.4776  -20.8495 H   0  0  0  0  0  0  0  0  0  0  0  0
   17.9842   -3.0527  -21.5309 H   0  0  0  0  0  0  0  0  0  0  0  0
   18.6139   -6.2075  -20.1240 H   0  0  0  0  0  0  0  0  0  0  0  0
  1  2  1  0
  1  6  1  0
  1  7  1  0
  2  3  1  0
  2  8  1  0
  2  9  1  0
  3  4  2  0
  3  5  1  0
  5 10  1  0
M  END
> <intraLJ>
-0.297    

> <intraEL>
3.169     

> <intraDihe>
0.054     

> <interLJ>
0.000     

> <interEJ>
0.000     

> <gridLJ>
-2.010    

> <gridEL>
0.000     

> <totalE>
0.915     

> <LGFE>
-2.010  

> <LE>
-0.402  

> <SMILES>
NCC(=O)O

> <atom.dprop.GFE>
-0.78 -0.25 0 -0.62 -0.36 0 0 0 0 0

> <atom.prop.CLASS>
GEND PRPC NCLA GENA MEOO NCLA NCLA NCLA NCLA NCLA

$$$$
