49_1
     RDKit          3D

 18 18  0  0  1  0  0  0  0  0999 V2000
  -30.4154   14.5763   15.8867 O   0  0  0  0  0  0  0  0  0  0  0  0
  -29.7004   13.5163   16.5111 C   0  0  0  0  0  0  0  0  0  0  0  0
  -28.5698   14.0668   17.3935 C   0  0  0  0  0  0  0  0  0  0  0  0
  -27.7603   12.9901   18.1138 C   0  0  0  0  0  0  0  0  0  0  0  0
  -27.2086   13.7145   19.3556 C   0  0  0  0  0  0  0  0  0  0  0  0
  -27.8847   15.0854   19.3339 C   0  0  0  0  0  0  0  0  0  0  0  0
  -29.0690   14.9213   18.4793 N   0  0  0  0  0  0  0  0  0  0  0  0
  -31.2533   14.2419   15.5562 H   0  0  0  0  0  0  0  0  0  0  0  0
  -30.3723   12.9276   17.1365 H   0  0  0  0  0  0  0  0  0  0  0  0
  -29.2702   12.8721   15.7435 H   0  0  0  0  0  0  0  0  0  0  0  0
  -27.8885   14.6426   16.7631 H   0  0  0  0  0  0  0  0  0  0  0  0
  -28.4206   12.1825   18.4321 H   0  0  0  0  0  0  0  0  0  0  0  0
  -26.9611   12.6078   17.4778 H   0  0  0  0  0  0  0  0  0  0  0  0
  -26.1255   13.8242   19.3046 H   0  0  0  0  0  0  0  0  0  0  0  0
  -27.4959   13.1726   20.2573 H   0  0  0  0  0  0  0  0  0  0  0  0
  -27.2017   15.8063   18.8786 H   0  0  0  0  0  0  0  0  0  0  0  0
  -28.1548   15.4197   20.3376 H   0  0  0  0  0  0  0  0  0  0  0  0
  -29.4382   15.7936   18.1186 H   0  0  0  0  0  0  0  0  0  0  0  0
  1  2  1  0
  1  8  1  0
  2  3  1  0
  2  9  1  0
  2 10  1  0
  3  4  1  0
  3  7  1  0
  3 11  1  0
  4  5  1  0
  4 12  1  0
  4 13  1  0
  5  6  1  0
  5 14  1  0
  5 15  1  0
  6  7  1  0
  6 16  1  0
  6 17  1  0
  7 18  1  0
M  END
> <intraLJ>
0.340     

> <intraEL>
1.560     

> <intraDihe>
11.866    

> <interLJ>
0.000     

> <interEJ>
0.000     

> <gridLJ>
-2.870    

> <gridEL>
0.000     

> <totalE>
10.896    

> <LGFE>
-2.870  

> <LE>
-0.410  

> <SMILES>
OCC1CCCN1

> <atom.dprop.GFE>
-0.23 -0.32 -0.48 -0.36 -0.48 -0.41 -0.6 0 0 0 0 0 0 0 0 0 0 0

> <atom.prop.CLASS>
MEOO PRPC PRPC PRPC PRPC PRPC GEND NCLA NCLA NCLA NCLA NCLA NCLA NCLA NCLA NCLA NCLA NCLA

$$$$
