11_3
     RDKit          3D

 11 11  0  0  0  0  0  0  0  0999 V2000
   -9.9732   -4.9610   11.1682 O   0  0  0  0  0  0  0  0  0  0  0  0
   -9.4780   -5.9497   10.4303 C   0  0  0  0  0  0  0  0  0  0  0  0
   -8.2654   -6.7191   10.8212 C   0  0  0  0  0  0  0  0  0  0  0  0
   -8.2204   -7.6724    9.6190 C   0  0  0  0  0  0  0  0  0  0  0  0
   -9.3702   -7.2737    8.7997 O   0  0  0  0  0  0  0  0  0  0  0  0
  -10.0554   -6.2460    9.3664 N   0  0  0  0  0  0  0  0  0  0  0  0
  -10.7454   -4.6831   10.6385 H   0  0  0  0  0  0  0  0  0  0  0  0
   -8.4540   -7.2548   11.7390 H   0  0  0  0  0  0  0  0  0  0  0  0
   -7.4075   -6.0632   10.8341 H   0  0  0  0  0  0  0  0  0  0  0  0
   -8.3336   -8.7084    9.9391 H   0  0  0  0  0  0  0  0  0  0  0  0
   -7.2977   -7.5418    9.0527 H   0  0  0  0  0  0  0  0  0  0  0  0
  1  2  1  0
  1  7  1  0
  2  3  1  0
  2  6  2  0
  3  4  1  0
  3  8  1  0
  3  9  1  0
  4  5  1  0
  4 10  1  0
  4 11  1  0
  5  6  1  0
M  END
> <intraLJ>
-0.718    

> <intraEL>
-4.916    

> <intraDihe>
22.322    

> <interLJ>
0.000     

> <interEJ>
0.000     

> <gridLJ>
-2.692    

> <gridEL>
0.000     

> <totalE>
13.997    

> <LGFE>
-2.692  

> <LE>
-0.449  

> <SMILES>
OC1=NOCC1

> <atom.dprop.GFE>
-0.55 -0.23 -0.24 -0.21 -0.57 -0.9 0 0 0 0 0

> <atom.prop.CLASS>
MEOO GEHC PRPC PRPC GENA GENA NCLA NCLA NCLA NCLA NCLA

$$$$
