14_1
     RDKit          3D

 18 18  0  0  1  0  0  0  0  0999 V2000
  -22.6732    2.9658   22.0374 C   0  0  0  0  0  0  0  0  0  0  0  0
  -23.7403    3.9207   21.7040 N   0  0  0  0  0  0  0  0  0  0  0  0
  -24.6299    3.3984   20.6530 C   0  0  0  0  0  0  0  0  0  0  0  0
  -26.0038    4.0278   20.9640 C   0  0  0  0  0  0  0  0  0  0  0  0
  -25.7680    4.8978   22.1953 C   0  0  0  0  0  0  0  0  0  0  0  0
  -25.3301    6.1676   21.7682 O   0  0  0  0  0  0  0  0  0  0  0  0
  -24.5779    4.2191   22.8737 C   0  0  0  0  0  0  0  0  0  0  0  0
  -22.0956    2.7925   21.1379 H   0  0  0  0  0  0  0  0  0  0  0  0
  -23.1225    2.0484   22.3951 H   0  0  0  0  0  0  0  0  0  0  0  0
  -22.0534    3.4183   22.7995 H   0  0  0  0  0  0  0  0  0  0  0  0
  -24.2805    3.7361   19.6847 H   0  0  0  0  0  0  0  0  0  0  0  0
  -24.7191    2.3212   20.7221 H   0  0  0  0  0  0  0  0  0  0  0  0
  -26.7204    3.2421   21.2018 H   0  0  0  0  0  0  0  0  0  0  0  0
  -26.3658    4.6252   20.1271 H   0  0  0  0  0  0  0  0  0  0  0  0
  -26.6619    4.9827   22.8160 H   0  0  0  0  0  0  0  0  0  0  0  0
  -24.4493    5.9849   21.4140 H   0  0  0  0  0  0  0  0  0  0  0  0
  -24.9159    3.3063   23.3462 H   0  0  0  0  0  0  0  0  0  0  0  0
  -24.0831    4.9079   23.5467 H   0  0  0  0  0  0  0  0  0  0  0  0
  1  2  1  0
  1  8  1  0
  1  9  1  0
  1 10  1  0
  2  3  1  0
  2  7  1  0
  3  4  1  0
  3 11  1  0
  3 12  1  0
  4  5  1  0
  4 13  1  0
  4 14  1  0
  5  6  1  0
  5  7  1  0
  5 15  1  0
  6 16  1  0
  7 17  1  0
  7 18  1  0
M  END
> <intraLJ>
3.504     

> <intraEL>
0.090     

> <intraDihe>
11.625    

> <interLJ>
0.000     

> <interEJ>
0.000     

> <gridLJ>
-4.052    

> <gridEL>
0.000     

> <totalE>
11.167    

> <LGFE>
-4.052  

> <LE>
-0.579  

> <SMILES>
CN1CCC(O)C1

> <atom.dprop.GFE>
-0.21 -1.4 -0.17 -0.3 -0.29 -2 0.34 0 0 0 0 0 0 0 0 0 0 0

> <atom.prop.CLASS>
PRPC GEND PRPC PRPC PRPC MEOO PRPC NCLA NCLA NCLA NCLA NCLA NCLA NCLA NCLA NCLA NCLA NCLA

$$$$
