80
     RDKit          3D

 16 16  0  0  0  0  0  0  0  0999 V2000
   25.3546   10.9217  -40.9624 N   0  0  0  0  0  0  0  0  0  0  0  0
   24.7232   10.4702  -42.0572 C   0  0  0  0  0  0  0  0  0  0  0  0
   23.8748   11.1974  -42.5210 O   0  0  0  0  0  0  0  0  0  0  0  0
   25.1101    9.1139  -42.6223 C   0  0  0  0  0  0  0  0  0  0  0  0
   24.0550    8.5252  -43.6000 C   0  0  0  0  0  0  0  0  0  0  0  0
   24.3471    7.1475  -42.9343 C   0  0  0  0  0  0  0  0  0  0  0  0
   24.7983    7.9294  -41.6653 C   0  0  0  0  0  0  0  0  0  0  0  0
   25.0780   11.8227  -40.6104 H   0  0  0  0  0  0  0  0  0  0  0  0
   26.0717   10.3788  -40.5178 H   0  0  0  0  0  0  0  0  0  0  0  0
   26.1211    9.1081  -43.0122 H   0  0  0  0  0  0  0  0  0  0  0  0
   24.3392    8.5815  -44.6416 H   0  0  0  0  0  0  0  0  0  0  0  0
   23.0466    8.8688  -43.4085 H   0  0  0  0  0  0  0  0  0  0  0  0
   25.1647    6.6204  -43.4106 H   0  0  0  0  0  0  0  0  0  0  0  0
   23.4697    6.5335  -42.7861 H   0  0  0  0  0  0  0  0  0  0  0  0
   23.9767    8.1224  -40.9880 H   0  0  0  0  0  0  0  0  0  0  0  0
   25.6699    7.5155  -41.1772 H   0  0  0  0  0  0  0  0  0  0  0  0
  1  2  1  0
  1  8  1  0
  1  9  1  0
  2  3  2  0
  2  4  1  0
  4  5  1  0
  4  7  1  0
  4 10  1  0
  5  6  1  0
  5 11  1  0
  5 12  1  0
  6  7  1  0
  6 13  1  0
  6 14  1  0
  7 15  1  0
  7 16  1  0
M  END
> <intraLJ>
0.056     

> <intraEL>
-0.842    

> <intraDihe>
21.658    

> <interLJ>
0.000     

> <interEJ>
0.000     

> <gridLJ>
-2.026    

> <gridEL>
0.000     

> <totalE>
18.846    

> <LGFE>
-2.026  

> <LE>
-0.289  

> <SMILES>
NC(=O)C1CCC1

> <atom.dprop.GFE>
-0.33 0 -0.61 -0.27 -0.25 -0.27 -0.3 0 0 0 0 0 0 0 0 0

> <atom.prop.CLASS>
GEND NCLA GENA PRPC PRPC PRPC PRPC NCLA NCLA NCLA NCLA NCLA NCLA NCLA NCLA NCLA

$$$$
