1
     RDKit          3D

  9  9  0  0  0  0  0  0  0  0999 V2000
  -41.2552    2.9479   27.2469 Br  0  0  0  0  0  0  0  0  0  0  0  0
  -40.6058    4.1614   28.5295 C   0  0  0  0  0  0  0  0  0  0  0  0
  -40.6332    5.5508   28.4586 C   0  0  0  0  0  0  0  0  0  0  0  0
  -40.0963    6.0880   29.5238 N   0  0  0  0  0  0  0  0  0  0  0  0
  -39.7209    5.0265   30.2883 N   0  0  0  0  0  0  0  0  0  0  0  0
  -40.0206    3.8453   29.7041 C   0  0  0  0  0  0  0  0  0  0  0  0
  -41.0303    6.1172   27.6554 H   0  0  0  0  0  0  0  0  0  0  0  0
  -39.2583    5.1379   31.2113 H   0  0  0  0  0  0  0  0  0  0  0  0
  -39.8029    2.9113   30.1524 H   0  0  0  0  0  0  0  0  0  0  0  0
  1  2  1  0
  2  3  1  0
  2  6  2  0
  3  4  2  0
  3  7  1  0
  4  5  1  0
  5  6  1  0
  5  8  1  0
  6  9  1  0
M  END
> <intraLJ>
-0.882    

> <intraEL>
0.676     

> <intraDihe>
0.000     

> <interLJ>
0.000     

> <interEJ>
0.000     

> <gridLJ>
-2.109    

> <gridEL>
0.000     

> <totalE>
-2.316    

> <LGFE>
-2.109  

> <LE>
-0.352  

> <SMILES>
Brc1cn[nH]c1

> <atom.dprop.GFE>
-0.57 -0.14 -0.15 -0.62 -0.48 -0.14 0 0 0

> <atom.prop.CLASS>
GENA GEHC GEHC GENA GEND GEHC NCLA NCLA NCLA

$$$$
