29_2
     RDKit          3D

 13 13  0  0  0  0  0  0  0  0999 V2000
   17.0733   -3.4992  -35.5872 N   0  0  0  0  0  0  0  0  0  0  0  0
   18.3118   -3.7494  -35.0110 C   0  0  0  0  0  0  0  0  0  0  0  0
   19.4831   -3.0954  -35.1885 C   0  0  0  0  0  0  0  0  0  0  0  0
   20.7323   -3.7912  -34.2052 S   0  0  0  0  0  0  0  0  0  0  0  0
   19.6074   -4.9218  -33.5860 C   0  0  0  0  0  0  0  0  0  0  0  0
   19.9069   -5.8619  -32.6697 N   0  0  0  0  0  0  0  0  0  0  0  0
   18.3886   -4.7751  -34.1056 N   0  0  0  0  0  0  0  0  0  0  0  0
   16.5109   -4.3303  -35.8246 H   0  0  0  0  0  0  0  0  0  0  0  0
   17.1353   -2.8461  -36.3886 H   0  0  0  0  0  0  0  0  0  0  0  0
   19.6661   -2.2663  -35.8242 H   0  0  0  0  0  0  0  0  0  0  0  0
   19.2120   -6.5260  -32.2992 H   0  0  0  0  0  0  0  0  0  0  0  0
   20.8745   -5.9127  -32.3059 H   0  0  0  0  0  0  0  0  0  0  0  0
   17.5794   -5.3365  -33.8239 H   0  0  0  0  0  0  0  0  0  0  0  0
  1  2  1  0
  1  8  1  0
  1  9  1  0
  2  3  2  0
  2  7  1  0
  3  4  1  0
  3 10  1  0
  4  5  1  0
  5  6  2  0
  5  7  1  0
  6 11  1  0
  6 12  1  0
  7 13  1  0
M  CHG  1   6   1
M  END
> <intraLJ>
-0.730    

> <intraEL>
-5.242    

> <intraDihe>
2.059     

> <interLJ>
0.000     

> <interEJ>
0.000     

> <gridLJ>
-3.377    

> <gridEL>
0.000     

> <totalE>
-7.290    

> <LGFE>
-3.377  

> <LE>
-0.482  

> <SMILES>
Nc1csc(=[NH2+])[nH]1

> <atom.dprop.GFE>
-0.56 0.026 0.018 -0.14 -1.4 -1.4 0 0 0 0 0 0 0

> <atom.prop.CLASS>
GEND GEHC GEHC PRPC MAMC MAMN NCLA NCLA NCLA NCLA NCLA NCLA NCLA

$$$$
