26_2
     RDKit          3D

 13 13  0  0  0  0  0  0  0  0999 V2000
  -40.0741    6.9084   21.3910 O   0  0  0  0  0  0  0  0  0  0  0  0
  -39.0819    6.1578   20.6480 C   0  0  0  0  0  0  0  0  0  0  0  0
  -39.0935    6.7440   19.2545 C   0  0  0  0  0  0  0  0  0  0  0  0
  -38.2319    7.5667   18.6136 C   0  0  0  0  0  0  0  0  0  0  0  0
  -38.7479    7.7815   17.3399 C   0  0  0  0  0  0  0  0  0  0  0  0
  -39.8693    7.1370   17.1725 N   0  0  0  0  0  0  0  0  0  0  0  0
  -40.0755    6.4992   18.3582 N   0  0  0  0  0  0  0  0  0  0  0  0
  -40.1240    6.5836   22.3061 H   0  0  0  0  0  0  0  0  0  0  0  0
  -39.3745    5.1159   20.5936 H   0  0  0  0  0  0  0  0  0  0  0  0
  -38.1031    6.3090   21.0849 H   0  0  0  0  0  0  0  0  0  0  0  0
  -37.3361    7.9733   19.0033 H   0  0  0  0  0  0  0  0  0  0  0  0
  -38.3058    8.3838   16.5872 H   0  0  0  0  0  0  0  0  0  0  0  0
  -40.8932    5.8913   18.5597 H   0  0  0  0  0  0  0  0  0  0  0  0
  1  2  1  0
  1  8  1  0
  2  3  1  0
  2  9  1  0
  2 10  1  0
  3  4  2  0
  3  7  1  0
  4  5  1  0
  4 11  1  0
  5  6  2  0
  5 12  1  0
  6  7  1  0
  7 13  1  0
M  END
> <intraLJ>
-0.110    

> <intraEL>
1.103     

> <intraDihe>
1.914     

> <interLJ>
0.000     

> <interEJ>
0.000     

> <gridLJ>
-2.930    

> <gridEL>
0.000     

> <totalE>
-0.023    

> <LGFE>
-2.930  

> <LE>
-0.419  

> <SMILES>
OCc1ccn[nH]1

> <atom.dprop.GFE>
-0.65 -0.6 -0.19 -0.11 -0.22 -0.61 -0.56 0 0 0 0 0 0

> <atom.prop.CLASS>
MEOO PRPC GEHC GEHC GEHC GENA GEND NCLA NCLA NCLA NCLA NCLA NCLA

$$$$
