29_2
     RDKit          3D

 13 13  0  0  0  0  0  0  0  0999 V2000
  -16.4387    7.4619   -2.7296 N   0  0  0  0  0  0  0  0  0  0  0  0
  -17.6942    7.0937   -3.1950 C   0  0  0  0  0  0  0  0  0  0  0  0
  -18.0201    6.3839   -4.3000 C   0  0  0  0  0  0  0  0  0  0  0  0
  -19.7388    6.1707   -4.4106 S   0  0  0  0  0  0  0  0  0  0  0  0
  -19.9345    7.0353   -2.9473 C   0  0  0  0  0  0  0  0  0  0  0  0
  -21.1239    7.2705   -2.3615 N   0  0  0  0  0  0  0  0  0  0  0  0
  -18.7769    7.4552   -2.4368 N   0  0  0  0  0  0  0  0  0  0  0  0
  -16.3742    8.3969   -2.2993 H   0  0  0  0  0  0  0  0  0  0  0  0
  -15.6980    7.3234   -3.4401 H   0  0  0  0  0  0  0  0  0  0  0  0
  -17.3578    5.9874   -5.0274 H   0  0  0  0  0  0  0  0  0  0  0  0
  -21.2203    7.7825   -1.4728 H   0  0  0  0  0  0  0  0  0  0  0  0
  -21.9819    6.9082   -2.8128 H   0  0  0  0  0  0  0  0  0  0  0  0
  -18.6964    7.9538   -1.5455 H   0  0  0  0  0  0  0  0  0  0  0  0
  1  2  1  0
  1  8  1  0
  1  9  1  0
  2  3  2  0
  2  7  1  0
  3  4  1  0
  3 10  1  0
  4  5  1  0
  5  6  2  0
  5  7  1  0
  6 11  1  0
  6 12  1  0
  7 13  1  0
M  CHG  1   6   1
M  END
> <intraLJ>
-0.730    

> <intraEL>
-5.242    

> <intraDihe>
2.059     

> <interLJ>
0.000     

> <interEJ>
0.000     

> <gridLJ>
-2.696    

> <gridEL>
0.000     

> <totalE>
-6.608    

> <LGFE>
-2.696  

> <LE>
-0.385  

> <SMILES>
Nc1csc(=[NH2+])[nH]1

> <atom.dprop.GFE>
-1.1 -0.32 -0.16 -0.14 -0.55 -0.41 0 0 0 0 0 0 0

> <atom.prop.CLASS>
GEND GEHC GEHC PRPC MAMC MAMN NCLA NCLA NCLA NCLA NCLA NCLA NCLA

$$$$
