45
     RDKit          3D

 13 13  0  0  0  0  0  0  0  0999 V2000
  -19.2793   -5.7604   24.9272 O   0  0  0  0  0  0  0  0  0  0  0  0
  -19.9026   -6.5295   25.8585 C   0  0  0  0  0  0  0  0  0  0  0  0
  -20.6330   -7.6345   25.4343 C   0  0  0  0  0  0  0  0  0  0  0  0
  -21.2746   -8.4285   26.3791 C   0  0  0  0  0  0  0  0  0  0  0  0
  -21.1820   -8.1135   27.7350 C   0  0  0  0  0  0  0  0  0  0  0  0
  -20.4467   -7.0027   28.1482 C   0  0  0  0  0  0  0  0  0  0  0  0
  -19.8016   -6.2037   27.2086 C   0  0  0  0  0  0  0  0  0  0  0  0
  -18.8060   -5.0239   25.3562 H   0  0  0  0  0  0  0  0  0  0  0  0
  -20.6948   -7.8615   24.4012 H   0  0  0  0  0  0  0  0  0  0  0  0
  -21.8345   -9.2743   26.0690 H   0  0  0  0  0  0  0  0  0  0  0  0
  -21.6721   -8.7202   28.4528 H   0  0  0  0  0  0  0  0  0  0  0  0
  -20.3801   -6.7677   29.1795 H   0  0  0  0  0  0  0  0  0  0  0  0
  -19.2434   -5.3602   27.5200 H   0  0  0  0  0  0  0  0  0  0  0  0
  1  2  1  0
  1  8  1  0
  2  3  2  0
  2  7  1  0
  3  4  1  0
  3  9  1  0
  4  5  2  0
  4 10  1  0
  5  6  1  0
  5 11  1  0
  6  7  2  0
  6 12  1  0
  7 13  1  0
M  END
> <intraLJ>
11.192    

> <intraEL>
-0.882    

> <intraDihe>
0.000     

> <interLJ>
0.000     

> <interEJ>
0.000     

> <gridLJ>
-2.222    

> <gridEL>
0.000     

> <totalE>
8.087     

> <LGFE>
-2.222  

> <LE>
-0.317  

> <SMILES>
Oc1ccccc1

> <atom.dprop.GFE>
-1.1 -0.16 -0.17 -0.21 -0.21 -0.18 -0.16 0 0 0 0 0 0

> <atom.prop.CLASS>
MEOO BENC BENC BENC BENC BENC BENC NCLA NCLA NCLA NCLA NCLA NCLA

$$$$
