67
     RDKit          3D

 15 15  0  0  1  0  0  0  0  0999 V2000
  -26.0507   -1.1702  -16.6580 O   0  0  0  0  0  0  0  0  0  0  0  0
  -26.0461   -1.5139  -18.0448 C   0  0  0  0  0  0  0  0  0  0  0  0
  -24.8900   -0.8882  -18.8205 C   0  0  0  0  0  0  0  0  0  0  0  0
  -24.7859   -1.6848  -19.9860 O   0  0  0  0  0  0  0  0  0  0  0  0
  -24.9905   -3.0349  -19.5872 C   0  0  0  0  0  0  0  0  0  0  0  0
  -25.7840   -3.0115  -18.2732 C   0  0  0  0  0  0  0  0  0  0  0  0
  -25.0047   -3.5325  -17.2093 O   0  0  0  0  0  0  0  0  0  0  0  0
  -26.2854   -0.2414  -16.5602 H   0  0  0  0  0  0  0  0  0  0  0  0
  -26.9897   -1.2377  -18.5185 H   0  0  0  0  0  0  0  0  0  0  0  0
  -23.9709   -0.9597  -18.2361 H   0  0  0  0  0  0  0  0  0  0  0  0
  -25.0994    0.1514  -19.0753 H   0  0  0  0  0  0  0  0  0  0  0  0
  -25.5427   -3.5745  -20.3577 H   0  0  0  0  0  0  0  0  0  0  0  0
  -24.0275   -3.5215  -19.4226 H   0  0  0  0  0  0  0  0  0  0  0  0
  -26.7240   -3.5564  -18.3705 H   0  0  0  0  0  0  0  0  0  0  0  0
  -25.1738   -2.9325  -16.4667 H   0  0  0  0  0  0  0  0  0  0  0  0
  1  2  1  0
  1  8  1  0
  2  3  1  0
  2  6  1  0
  2  9  1  0
  3  4  1  0
  3 10  1  0
  3 11  1  0
  4  5  1  0
  5  6  1  0
  5 12  1  0
  5 13  1  0
  6  7  1  0
  6 14  1  0
  7 15  1  0
M  END
> <intraLJ>
4.089     

> <intraEL>
1.909     

> <intraDihe>
14.436    

> <interLJ>
0.000     

> <interEJ>
0.000     

> <gridLJ>
-2.453    

> <gridEL>
0.000     

> <totalE>
17.981    

> <LGFE>
-2.453  

> <LE>
-0.350  

> <SMILES>
OC1COCC1O

> <atom.dprop.GFE>
-0.26 -0.4 -0.42 -0.4 -0.43 -0.33 -0.22 0 0 0 0 0 0 0 0

> <atom.prop.CLASS>
MEOO PRPC PRPC GENA PRPC PRPC MEOO NCLA NCLA NCLA NCLA NCLA NCLA NCLA NCLA

$$$$
