78_1
     RDKit          3D

 13 12  0  0  0  0  0  0  0  0999 V2000
  -24.0963    7.3929   14.0807 C   0  0  0  0  0  0  0  0  0  0  0  0
  -24.0704    7.2082   12.5489 C   0  0  0  0  0  0  0  0  0  0  0  0
  -23.3926    8.4212   11.9525 C   0  0  0  0  0  0  0  0  0  0  0  0
  -23.8581    9.0912   11.0104 N   0  0  0  0  0  0  0  0  0  0  0  0
  -22.2111    8.8251   12.4686 N   0  0  0  0  0  0  0  0  0  0  0  0
  -24.6140    6.5399   14.5187 H   0  0  0  0  0  0  0  0  0  0  0  0
  -24.6360    8.3155   14.3077 H   0  0  0  0  0  0  0  0  0  0  0  0
  -23.0745    7.4476   14.4574 H   0  0  0  0  0  0  0  0  0  0  0  0
  -25.0870    7.1710   12.1820 H   0  0  0  0  0  0  0  0  0  0  0  0
  -23.5031    6.3248   12.2965 H   0  0  0  0  0  0  0  0  0  0  0  0
  -23.2558    9.8418   10.7547 H   0  0  0  0  0  0  0  0  0  0  0  0
  -21.9232    9.7895   12.2742 H   0  0  0  0  0  0  0  0  0  0  0  0
  -21.9389    8.4149   13.3681 H   0  0  0  0  0  0  0  0  0  0  0  0
  1  2  1  0
  1  6  1  0
  1  7  1  0
  1  8  1  0
  2  3  1  0
  2  9  1  0
  2 10  1  0
  3  4  2  0
  3  5  1  0
  4 11  1  0
  5 12  1  0
  5 13  1  0
M  END
> <intraLJ>
1.899     

> <intraEL>
-9.553    

> <intraDihe>
7.143     

> <interLJ>
0.000     

> <interEJ>
0.000     

> <gridLJ>
-2.302    

> <gridEL>
0.000     

> <totalE>
-2.814    

> <LGFE>
-2.302  

> <LE>
-0.460  

> <SMILES>
CCC(=N)N

> <atom.dprop.GFE>
-0.53 -0.59 0 -0.62 -0.57 0 0 0 0 0 0 0 0

> <atom.prop.CLASS>
PRPC PRPC NCLA GENA GEND NCLA NCLA NCLA NCLA NCLA NCLA NCLA NCLA

$$$$
