73
     RDKit          3D

 13 13  0  0  0  0  0  0  0  0999 V2000
  -19.0904   -4.2581   23.8321 O   0  0  0  0  0  0  0  0  0  0  0  0
  -19.1165   -4.7130   24.9644 C   0  0  0  0  0  0  0  0  0  0  0  0
  -19.8210   -5.9850   25.3759 C   0  0  0  0  0  0  0  0  0  0  0  0
  -19.1963   -6.3002   26.7481 C   0  0  0  0  0  0  0  0  0  0  0  0
  -18.7464   -4.9141   27.2315 C   0  0  0  0  0  0  0  0  0  0  0  0
  -18.4880   -4.1971   26.0005 N   0  0  0  0  0  0  0  0  0  0  0  0
  -19.6318   -6.7807   24.6573 H   0  0  0  0  0  0  0  0  0  0  0  0
  -20.8862   -5.7817   25.4749 H   0  0  0  0  0  0  0  0  0  0  0  0
  -18.3208   -6.9382   26.6143 H   0  0  0  0  0  0  0  0  0  0  0  0
  -19.9125   -6.7592   27.4319 H   0  0  0  0  0  0  0  0  0  0  0  0
  -17.8506   -4.9900   27.8522 H   0  0  0  0  0  0  0  0  0  0  0  0
  -19.5532   -4.4264   27.7849 H   0  0  0  0  0  0  0  0  0  0  0  0
  -17.9557   -3.3453   25.9269 H   0  0  0  0  0  0  0  0  0  0  0  0
  1  2  2  0
  2  3  1  0
  2  6  1  0
  3  4  1  0
  3  7  1  0
  3  8  1  0
  4  5  1  0
  4  9  1  0
  4 10  1  0
  5  6  1  0
  5 11  1  0
  5 12  1  0
  6 13  1  0
M  END
> <intraLJ>
-0.403    

> <intraEL>
-2.564    

> <intraDihe>
6.839     

> <interLJ>
0.000     

> <interEJ>
0.000     

> <gridLJ>
-3.759    

> <gridEL>
0.000     

> <totalE>
0.113     

> <LGFE>
-3.759  

> <LE>
-0.626  

> <SMILES>
O=C1CCCN1

> <atom.dprop.GFE>
-1.6 -0.22 -0.32 -0.32 -0.24 -1 0 0 0 0 0 0 0

> <atom.prop.CLASS>
GENA GEHC PRPC PRPC PRPC GEND NCLA NCLA NCLA NCLA NCLA NCLA NCLA

$$$$
