19_1
     RDKit          3D

 11 11  0  0  0  0  0  0  0  0999 V2000
   22.4334    8.0688   -8.6120 N   0  0  0  0  0  0  0  0  0  0  0  0
   23.3409    7.0669   -8.3579 C   0  0  0  0  0  0  0  0  0  0  0  0
   23.0983    5.8020   -7.8396 C   0  0  0  0  0  0  0  0  0  0  0  0
   24.2993    5.1855   -7.7979 C   0  0  0  0  0  0  0  0  0  0  0  0
   25.1854    6.0899   -8.2832 N   0  0  0  0  0  0  0  0  0  0  0  0
   24.5843    7.2712   -8.6424 N   0  0  0  0  0  0  0  0  0  0  0  0
   22.9048    8.7377   -9.2341 H   0  0  0  0  0  0  0  0  0  0  0  0
   21.5875    7.6774   -9.0395 H   0  0  0  0  0  0  0  0  0  0  0  0
   22.1631    5.4108   -7.5356 H   0  0  0  0  0  0  0  0  0  0  0  0
   24.5854    4.2191   -7.4736 H   0  0  0  0  0  0  0  0  0  0  0  0
   26.2046    5.9236   -8.3788 H   0  0  0  0  0  0  0  0  0  0  0  0
  1  2  1  0
  1  7  1  0
  1  8  1  0
  2  3  1  0
  2  6  2  0
  3  4  2  0
  3  9  1  0
  4  5  1  0
  4 10  1  0
  5  6  1  0
  5 11  1  0
M  END
> <intraLJ>
-0.199    

> <intraEL>
-8.716    

> <intraDihe>
2.079     

> <interLJ>
0.000     

> <interEJ>
0.000     

> <gridLJ>
-4.058    

> <gridEL>
0.000     

> <totalE>
-10.893   

> <LGFE>
-4.058  

> <LE>
-0.676  

> <SMILES>
Nc1cc[nH]n1

> <atom.dprop.GFE>
-1.3 -0.4 -0.38 -0.29 -0.44 -1.3 0 0 0 0 0

> <atom.prop.CLASS>
GEND GEHC GEHC GEHC GEND GENA NCLA NCLA NCLA NCLA NCLA

$$$$
