46_2
     RDKit          3D

 15 15  0  0  0  0  0  0  0  0999 V2000
  -24.3444    4.8721   21.4006 C   0  0  0  0  0  0  0  0  0  0  0  0
  -25.6325    5.6669   21.6860 C   0  0  0  0  0  0  0  0  0  0  0  0
  -25.1410    7.0755   22.0070 C   0  0  0  0  0  0  0  0  0  0  0  0
  -23.8566    7.1913   21.2946 N   0  0  0  0  0  0  0  0  0  0  0  0
  -23.2263    5.8933   21.5949 C   0  0  0  0  0  0  0  0  0  0  0  0
  -24.3460    4.5093   20.3713 H   0  0  0  0  0  0  0  0  0  0  0  0
  -24.2253    4.0351   22.0921 H   0  0  0  0  0  0  0  0  0  0  0  0
  -26.1833    5.2501   22.5320 H   0  0  0  0  0  0  0  0  0  0  0  0
  -26.2684    5.6830   20.7980 H   0  0  0  0  0  0  0  0  0  0  0  0
  -24.9774    7.1432   23.0862 H   0  0  0  0  0  0  0  0  0  0  0  0
  -25.8650    7.8374   21.7027 H   0  0  0  0  0  0  0  0  0  0  0  0
  -23.3024    7.9876   21.5869 H   0  0  0  0  0  0  0  0  0  0  0  0
  -24.0398    7.2388   20.3009 H   0  0  0  0  0  0  0  0  0  0  0  0
  -22.3661    5.6807   20.9541 H   0  0  0  0  0  0  0  0  0  0  0  0
  -22.9136    5.8631   22.6428 H   0  0  0  0  0  0  0  0  0  0  0  0
  1  2  1  0
  1  5  1  0
  1  6  1  0
  1  7  1  0
  2  3  1  0
  2  8  1  0
  2  9  1  0
  3  4  1  0
  3 10  1  0
  3 11  1  0
  4  5  1  0
  4 12  1  0
  4 13  1  0
  5 14  1  0
  5 15  1  0
M  CHG  1   4   1
M  END
> <intraLJ>
-0.364    

> <intraEL>
9.610     

> <intraDihe>
5.719     

> <interLJ>
0.000     

> <interEJ>
0.000     

> <gridLJ>
-3.101    

> <gridEL>
0.000     

> <totalE>
11.864    

> <LGFE>
-3.101  

> <LE>
-0.620  

> <SMILES>
C1CC[NH2+]C1

> <atom.dprop.GFE>
-0.14 -0.23 -0.021 -2.9 0.22 0 0 0 0 0 0 0 0 0 0

> <atom.prop.CLASS>
PRPC PRPC PRPC MAMN PRPC NCLA NCLA NCLA NCLA NCLA NCLA NCLA NCLA NCLA NCLA

$$$$
