79
     RDKit          3D

 13 12  0  0  0  0  0  0  0  0999 V2000
  -39.5111    5.0400   31.3479 C   0  0  0  0  0  0  0  0  0  0  0  0
  -39.6457    5.5806   29.9266 C   0  0  0  0  0  0  0  0  0  0  0  0
  -40.8052    4.9087   29.3908 O   0  0  0  0  0  0  0  0  0  0  0  0
  -40.8038    3.7471   28.7150 C   0  0  0  0  0  0  0  0  0  0  0  0
  -39.7816    3.1394   28.4828 O   0  0  0  0  0  0  0  0  0  0  0  0
  -41.9839    3.2680   28.2969 N   0  0  0  0  0  0  0  0  0  0  0  0
  -38.6504    5.4965   31.8366 H   0  0  0  0  0  0  0  0  0  0  0  0
  -39.3776    3.9575   31.3168 H   0  0  0  0  0  0  0  0  0  0  0  0
  -40.4136    5.2708   31.9148 H   0  0  0  0  0  0  0  0  0  0  0  0
  -38.7558    5.3318   29.3460 H   0  0  0  0  0  0  0  0  0  0  0  0
  -39.8062    6.6602   29.9513 H   0  0  0  0  0  0  0  0  0  0  0  0
  -41.9775    2.3786   27.7873 H   0  0  0  0  0  0  0  0  0  0  0  0
  -42.8522    3.7692   28.4923 H   0  0  0  0  0  0  0  0  0  0  0  0
  1  2  1  0
  1  7  1  0
  1  8  1  0
  1  9  1  0
  2  3  1  0
  2 10  1  0
  2 11  1  0
  3  4  1  0
  4  5  2  0
  4  6  1  0
  6 12  1  0
  6 13  1  0
M  END
> <intraLJ>
-0.004    

> <intraEL>
-7.832    

> <intraDihe>
1.199     

> <interLJ>
0.000     

> <interEJ>
0.000     

> <gridLJ>
-2.182    

> <gridEL>
0.000     

> <totalE>
-8.818    

> <LGFE>
-2.182  

> <LE>
-0.364  

> <SMILES>
CCOC(N)=O

> <atom.dprop.GFE>
-0.35 -0.4 -0.7 0 -0.51 -0.22 0 0 0 0 0 0 0

> <atom.prop.CLASS>
PRPC PRPC GENA NCLA GENA GEND NCLA NCLA NCLA NCLA NCLA NCLA NCLA

$$$$
