68_1
     RDKit          3D

 17 16  0  0  1  0  0  0  0  0999 V2000
   25.5267    6.8679   -9.3753 C   0  0  0  0  0  0  0  0  0  0  0  0
   24.3661    7.8278   -9.6083 C   0  0  0  0  0  0  0  0  0  0  0  0
   24.9138    9.1002  -10.0978 N   0  0  0  0  0  0  0  0  0  0  0  0
   23.5680    8.0214   -8.3154 C   0  0  0  0  0  0  0  0  0  0  0  0
   22.9362    6.7235   -7.8410 C   0  0  0  0  0  0  0  0  0  0  0  0
   23.3249    6.1613   -6.8326 O   0  0  0  0  0  0  0  0  0  0  0  0
   21.9533    6.1949   -8.5449 N   0  0  0  0  0  0  0  0  0  0  0  0
   25.1474    5.8951   -9.0596 H   0  0  0  0  0  0  0  0  0  0  0  0
   26.1972    7.2628   -8.6115 H   0  0  0  0  0  0  0  0  0  0  0  0
   26.0812    6.7433  -10.3051 H   0  0  0  0  0  0  0  0  0  0  0  0
   23.7061    7.3991  -10.3686 H   0  0  0  0  0  0  0  0  0  0  0  0
   25.5572    9.4952   -9.4282 H   0  0  0  0  0  0  0  0  0  0  0  0
   24.1638    9.7470  -10.3086 H   0  0  0  0  0  0  0  0  0  0  0  0
   22.7974    8.7763   -8.4619 H   0  0  0  0  0  0  0  0  0  0  0  0
   24.2398    8.3631   -7.5293 H   0  0  0  0  0  0  0  0  0  0  0  0
   21.5608    5.3371   -8.1938 H   0  0  0  0  0  0  0  0  0  0  0  0
   21.6147    6.6434   -9.3769 H   0  0  0  0  0  0  0  0  0  0  0  0
  1  2  1  0
  1  8  1  0
  1  9  1  0
  1 10  1  0
  2  3  1  0
  2  4  1  0
  2 11  1  0
  3 12  1  0
  3 13  1  0
  4  5  1  0
  4 14  1  0
  4 15  1  0
  5  6  2  0
  5  7  1  0
  7 16  1  0
  7 17  1  0
M  END
> <intraLJ>
1.220     

> <intraEL>
-12.178   

> <intraDihe>
0.862     

> <interLJ>
0.000     

> <interEJ>
0.000     

> <gridLJ>
-4.095    

> <gridEL>
0.000     

> <totalE>
-14.191   

> <LGFE>
-4.095  

> <LE>
-0.585  

> <SMILES>
CC(N)CC(N)=O

> <atom.dprop.GFE>
-0.31 -0.41 -0.56 -0.4 0 -1.2 -1.2 0 0 0 0 0 0 0 0 0 0

> <atom.prop.CLASS>
PRPC PRPC GEND PRPC NCLA GENA GEND NCLA NCLA NCLA NCLA NCLA NCLA NCLA NCLA NCLA NCLA

$$$$
