51_2
     RDKit          3D

 12 12  0  0  0  0  0  0  0  0999 V2000
   15.8869   16.9624  -29.6316 O   0  0  0  0  0  0  0  0  0  0  0  0
   14.7586   16.4716  -29.1085 C   0  0  0  0  0  0  0  0  0  0  0  0
   14.0593   17.0598  -27.9294 C   0  0  0  0  0  0  0  0  0  0  0  0
   13.0856   15.8995  -27.6526 C   0  0  0  0  0  0  0  0  0  0  0  0
   13.1000   15.1579  -28.9224 N   0  0  0  0  0  0  0  0  0  0  0  0
   14.2523   15.4497  -29.6260 N   0  0  0  0  0  0  0  0  0  0  0  0
   16.0326   16.3449  -30.3729 H   0  0  0  0  0  0  0  0  0  0  0  0
   13.5225   17.9402  -28.2521 H   0  0  0  0  0  0  0  0  0  0  0  0
   14.7458   17.2047  -27.1095 H   0  0  0  0  0  0  0  0  0  0  0  0
   12.0850   16.2645  -27.4127 H   0  0  0  0  0  0  0  0  0  0  0  0
   13.4722   15.2666  -26.8516 H   0  0  0  0  0  0  0  0  0  0  0  0
   12.8213   14.1586  -28.9017 H   0  0  0  0  0  0  0  0  0  0  0  0
  1  2  1  0
  1  7  1  0
  2  3  1  0
  2  6  2  0
  3  4  1  0
  3  8  1  0
  3  9  1  0
  4  5  1  0
  4 10  1  0
  4 11  1  0
  5  6  1  0
  5 12  1  0
M  END
> <intraLJ>
-0.691    

> <intraEL>
-4.206    

> <intraDihe>
21.287    

> <interLJ>
0.000     

> <interEJ>
0.000     

> <gridLJ>
-3.458    

> <gridEL>
0.000     

> <totalE>
12.932    

> <LGFE>
-3.458  

> <LE>
-0.576  

> <SMILES>
OC1=NNCC1

> <atom.dprop.GFE>
-0.48 -0.28 -0.27 -0.16 -1.7 -0.61 0 0 0 0 0 0

> <atom.prop.CLASS>
MEOO GEHC PRPC PRPC GEND GENA NCLA NCLA NCLA NCLA NCLA NCLA

$$$$
