29_2
     RDKit          3D

 13 13  0  0  0  0  0  0  0  0999 V2000
  -18.8864  -10.6172   24.3761 N   0  0  0  0  0  0  0  0  0  0  0  0
  -17.8576  -11.4245   23.9088 C   0  0  0  0  0  0  0  0  0  0  0  0
  -16.7555  -11.8642   24.5593 C   0  0  0  0  0  0  0  0  0  0  0  0
  -15.7948  -12.8770   23.5285 S   0  0  0  0  0  0  0  0  0  0  0  0
  -16.9383  -12.6737   22.2723 C   0  0  0  0  0  0  0  0  0  0  0  0
  -16.8360  -13.2447   21.0571 N   0  0  0  0  0  0  0  0  0  0  0  0
  -17.9553  -11.8860   22.6223 N   0  0  0  0  0  0  0  0  0  0  0  0
  -19.2696   -9.9394   23.7000 H   0  0  0  0  0  0  0  0  0  0  0  0
  -18.6519  -10.1596   25.2751 H   0  0  0  0  0  0  0  0  0  0  0  0
  -16.4725  -11.6524   25.5593 H   0  0  0  0  0  0  0  0  0  0  0  0
  -17.5421  -13.1205   20.3175 H   0  0  0  0  0  0  0  0  0  0  0  0
  -16.0205  -13.8501   20.8581 H   0  0  0  0  0  0  0  0  0  0  0  0
  -18.7535  -11.6841   22.0128 H   0  0  0  0  0  0  0  0  0  0  0  0
  1  2  1  0
  1  8  1  0
  1  9  1  0
  2  3  2  0
  2  7  1  0
  3  4  1  0
  3 10  1  0
  4  5  1  0
  5  6  2  0
  5  7  1  0
  6 11  1  0
  6 12  1  0
  7 13  1  0
M  CHG  1   6   1
M  END
> <intraLJ>
-0.730    

> <intraEL>
-5.242    

> <intraDihe>
2.059     

> <interLJ>
0.000     

> <interEJ>
0.000     

> <gridLJ>
-5.065    

> <gridEL>
0.000     

> <totalE>
-8.978    

> <LGFE>
-5.065  

> <LE>
-0.724  

> <SMILES>
Nc1csc(=[NH2+])[nH]1

> <atom.dprop.GFE>
-0.17 0.35 0.014 0.18 -2.7 -2.7 0 0 0 0 0 0 0

> <atom.prop.CLASS>
GEND GEHC GEHC PRPC MAMC MAMN NCLA NCLA NCLA NCLA NCLA NCLA NCLA

$$$$
