31_1
     RDKit          3D

 15 15  0  0  0  0  0  0  0  0999 V2000
  -43.8867   10.7883   21.0285 O   0  0  0  0  0  0  0  0  0  0  0  0
  -43.7378   10.7129   22.2402 C   0  0  0  0  0  0  0  0  0  0  0  0
  -43.4399    9.3557   22.9322 C   0  0  0  0  0  0  0  0  0  0  0  0
  -42.9532    9.4386   24.3521 N   0  0  0  0  0  0  0  0  0  0  0  0
  -43.6869   10.5115   25.0746 C   0  0  0  0  0  0  0  0  0  0  0  0
  -43.4775   11.8718   24.3857 C   0  0  0  0  0  0  0  0  0  0  0  0
  -43.9074   11.8026   22.9896 N   0  0  0  0  0  0  0  0  0  0  0  0
  -42.7103    8.8173   22.3262 H   0  0  0  0  0  0  0  0  0  0  0  0
  -44.3684    8.7859   22.9200 H   0  0  0  0  0  0  0  0  0  0  0  0
  -41.9624    9.6501   24.3480 H   0  0  0  0  0  0  0  0  0  0  0  0
  -43.3304   10.5721   26.1047 H   0  0  0  0  0  0  0  0  0  0  0  0
  -44.7545   10.2813   25.0941 H   0  0  0  0  0  0  0  0  0  0  0  0
  -42.4201   12.1373   24.4320 H   0  0  0  0  0  0  0  0  0  0  0  0
  -44.0561   12.6319   24.9136 H   0  0  0  0  0  0  0  0  0  0  0  0
  -44.1483   12.6438   22.4920 H   0  0  0  0  0  0  0  0  0  0  0  0
  1  2  2  0
  2  3  1  0
  2  7  1  0
  3  4  1  0
  3  8  1  0
  3  9  1  0
  4  5  1  0
  4 10  1  0
  5  6  1  0
  5 11  1  0
  5 12  1  0
  6  7  1  0
  6 13  1  0
  6 14  1  0
  7 15  1  0
M  END
> <intraLJ>
0.615     

> <intraEL>
3.232     

> <intraDihe>
15.833    

> <interLJ>
0.000     

> <interEJ>
0.000     

> <gridLJ>
-2.032    

> <gridEL>
0.000     

> <totalE>
17.648    

> <LGFE>
-2.032  

> <LE>
-0.290  

> <SMILES>
O=C1CNCCN1

> <atom.dprop.GFE>
-0.49 0 -0.18 -0.45 -0.25 -0.25 -0.41 0 0 0 0 0 0 0 0

> <atom.prop.CLASS>
GENA NCLA PRPC GEND PRPC PRPC GEND NCLA NCLA NCLA NCLA NCLA NCLA NCLA NCLA

$$$$
