24_1
     RDKit          3D

 16 16  0  0  0  0  0  0  0  0999 V2000
   13.3511    7.4437    1.7570 N   0  0  0  0  0  0  0  0  0  0  0  0
   13.4691    7.7352    3.0510 C   0  0  0  0  0  0  0  0  0  0  0  0
   13.7923    6.8599    3.8982 N   0  0  0  0  0  0  0  0  0  0  0  0
   13.9512    7.2128    5.3124 C   0  0  0  0  0  0  0  0  0  0  0  0
   14.4201    8.6741    5.3601 C   0  0  0  0  0  0  0  0  0  0  0  0
   13.3941    9.5685    4.6544 C   0  0  0  0  0  0  0  0  0  0  0  0
   13.2056    9.0393    3.2999 N   0  0  0  0  0  0  0  0  0  0  0  0
   13.3182    6.4260    1.6423 H   0  0  0  0  0  0  0  0  0  0  0  0
   12.5820    7.9580    1.3223 H   0  0  0  0  0  0  0  0  0  0  0  0
   14.7025    6.5687    5.7695 H   0  0  0  0  0  0  0  0  0  0  0  0
   12.9999    7.0967    5.8340 H   0  0  0  0  0  0  0  0  0  0  0  0
   15.3880    8.7607    4.8623 H   0  0  0  0  0  0  0  0  0  0  0  0
   14.5251    8.9882    6.3975 H   0  0  0  0  0  0  0  0  0  0  0  0
   13.7562   10.5976    4.6184 H   0  0  0  0  0  0  0  0  0  0  0  0
   12.4463    9.5334    5.1957 H   0  0  0  0  0  0  0  0  0  0  0  0
   13.4881    9.6408    2.5189 H   0  0  0  0  0  0  0  0  0  0  0  0
  1  2  1  0
  1  8  1  0
  1  9  1  0
  2  3  2  0
  2  7  1  0
  3  4  1  0
  4  5  1  0
  4 10  1  0
  4 11  1  0
  5  6  1  0
  5 12  1  0
  5 13  1  0
  6  7  1  0
  6 14  1  0
  6 15  1  0
  7 16  1  0
M  END
> <intraLJ>
3.879     

> <intraEL>
-12.614   

> <intraDihe>
8.194     

> <interLJ>
0.000     

> <interEJ>
0.000     

> <gridLJ>
-2.368    

> <gridEL>
0.000     

> <totalE>
-2.909    

> <LGFE>
-2.368  

> <LE>
-0.338  

> <SMILES>
NC1=NCCCN1

> <atom.dprop.GFE>
-1.1 0 -0.9 -0.098 -0.12 -0.03 -0.13 0 0 0 0 0 0 0 0 0

> <atom.prop.CLASS>
GEND NCLA GENA PRPC PRPC PRPC GEND NCLA NCLA NCLA NCLA NCLA NCLA NCLA NCLA NCLA

$$$$
