23_3
     RDKit          3D

 11 11  0  0  0  0  0  0  0  0999 V2000
  -15.4762   -0.8064  -21.2271 O   0  0  0  0  0  0  0  0  0  0  0  0
  -15.9137    0.2285  -21.7065 C   0  0  0  0  0  0  0  0  0  0  0  0
  -15.5563    0.4987  -22.9960 N   0  0  0  0  0  0  0  0  0  0  0  0
  -15.9754    1.6255  -23.6589 C   0  0  0  0  0  0  0  0  0  0  0  0
  -16.7777    2.4847  -22.9737 C   0  0  0  0  0  0  0  0  0  0  0  0
  -17.1410    2.1870  -21.6295 C   0  0  0  0  0  0  0  0  0  0  0  0
  -16.7350    1.1258  -21.0326 N   0  0  0  0  0  0  0  0  0  0  0  0
  -14.9482   -0.2069  -23.4338 H   0  0  0  0  0  0  0  0  0  0  0  0
  -15.6444    1.7483  -24.6613 H   0  0  0  0  0  0  0  0  0  0  0  0
  -17.1388    3.3727  -23.4207 H   0  0  0  0  0  0  0  0  0  0  0  0
  -17.7671    2.8596  -21.0993 H   0  0  0  0  0  0  0  0  0  0  0  0
  1  2  2  0
  2  3  1  0
  2  7  1  0
  3  4  1  0
  3  8  1  0
  4  5  2  0
  4  9  1  0
  5  6  1  0
  5 10  1  0
  6  7  2  0
  6 11  1  0
M  END
> <intraLJ>
11.692    

> <intraEL>
-4.846    

> <intraDihe>
0.000     

> <interLJ>
0.000     

> <interEJ>
0.000     

> <gridLJ>
-2.276    

> <gridEL>
0.000     

> <totalE>
4.570     

> <LGFE>
-2.276  

> <LE>
-0.325  

> <SMILES>
O=c1nccc[nH]1

> <atom.dprop.GFE>
-1 -0.1 -0.29 0.013 0.0085 -0.072 -0.83 0 0 0 0

> <atom.prop.CLASS>
GENA GEHC GEND BENC BENC BENC GENA NCLA NCLA NCLA NCLA

$$$$
