78_1
     RDKit          3D

 13 12  0  0  0  0  0  0  0  0999 V2000
  -30.1066   17.1297   26.4666 C   0  0  0  0  0  0  0  0  0  0  0  0
  -28.7697   16.3616   26.5283 C   0  0  0  0  0  0  0  0  0  0  0  0
  -28.7068   15.4535   25.3208 C   0  0  0  0  0  0  0  0  0  0  0  0
  -28.4170   14.2424   25.3696 N   0  0  0  0  0  0  0  0  0  0  0  0
  -28.9903   15.9688   24.1045 N   0  0  0  0  0  0  0  0  0  0  0  0
  -30.1781   17.7622   27.3511 H   0  0  0  0  0  0  0  0  0  0  0  0
  -30.9221   16.4025   26.4592 H   0  0  0  0  0  0  0  0  0  0  0  0
  -30.1334   17.7403   25.5636 H   0  0  0  0  0  0  0  0  0  0  0  0
  -28.7581   15.7469   27.4180 H   0  0  0  0  0  0  0  0  0  0  0  0
  -27.9454   17.0582   26.4917 H   0  0  0  0  0  0  0  0  0  0  0  0
  -28.4173   13.8233   24.4663 H   0  0  0  0  0  0  0  0  0  0  0  0
  -29.2396   15.3053   23.3640 H   0  0  0  0  0  0  0  0  0  0  0  0
  -29.4333   16.8935   24.0896 H   0  0  0  0  0  0  0  0  0  0  0  0
  1  2  1  0
  1  6  1  0
  1  7  1  0
  1  8  1  0
  2  3  1  0
  2  9  1  0
  2 10  1  0
  3  4  2  0
  3  5  1  0
  4 11  1  0
  5 12  1  0
  5 13  1  0
M  END
> <intraLJ>
1.937     

> <intraEL>
-9.551    

> <intraDihe>
7.103     

> <interLJ>
0.000     

> <interEJ>
0.000     

> <gridLJ>
-2.131    

> <gridEL>
0.000     

> <totalE>
-2.643    

> <LGFE>
-2.131  

> <LE>
-0.426  

> <SMILES>
CCC(=N)N

> <atom.dprop.GFE>
-0.29 -0.25 0 -1 -0.59 0 0 0 0 0 0 0 0

> <atom.prop.CLASS>
PRPC PRPC NCLA GENA GEND NCLA NCLA NCLA NCLA NCLA NCLA NCLA NCLA

$$$$
