46_1
     RDKit          3D

 14 14  0  0  0  0  0  0  0  0999 V2000
   -1.5550   15.0939   -2.5979 C   0  0  0  0  0  0  0  0  0  0  0  0
   -1.0854   14.9451   -1.1406 C   0  0  0  0  0  0  0  0  0  0  0  0
   -2.2705   14.3050   -0.4205 C   0  0  0  0  0  0  0  0  0  0  0  0
   -3.0359   13.6179   -1.4689 N   0  0  0  0  0  0  0  0  0  0  0  0
   -2.9867   14.5657   -2.5896 C   0  0  0  0  0  0  0  0  0  0  0  0
   -0.9415   14.4661   -3.2448 H   0  0  0  0  0  0  0  0  0  0  0  0
   -1.5245   16.1320   -2.9303 H   0  0  0  0  0  0  0  0  0  0  0  0
   -0.8394   15.9104   -0.6958 H   0  0  0  0  0  0  0  0  0  0  0  0
   -0.2270   14.2740   -1.0990 H   0  0  0  0  0  0  0  0  0  0  0  0
   -2.8809   15.0960    0.0223 H   0  0  0  0  0  0  0  0  0  0  0  0
   -1.9425   13.6149    0.3603 H   0  0  0  0  0  0  0  0  0  0  0  0
   -3.9778   13.3769   -1.1860 H   0  0  0  0  0  0  0  0  0  0  0  0
   -3.2449   14.0869   -3.5367 H   0  0  0  0  0  0  0  0  0  0  0  0
   -3.6694   15.3976   -2.3996 H   0  0  0  0  0  0  0  0  0  0  0  0
  1  2  1  0
  1  5  1  0
  1  6  1  0
  1  7  1  0
  2  3  1  0
  2  8  1  0
  2  9  1  0
  3  4  1  0
  3 10  1  0
  3 11  1  0
  4  5  1  0
  4 12  1  0
  5 13  1  0
  5 14  1  0
M  END
> <intraLJ>
-0.383    

> <intraEL>
0.415     

> <intraDihe>
8.071     

> <interLJ>
0.000     

> <interEJ>
0.000     

> <gridLJ>
-3.663    

> <gridEL>
0.000     

> <totalE>
4.440     

> <LGFE>
-3.663  

> <LE>
-0.733  

> <SMILES>
C1CCNC1

> <atom.dprop.GFE>
-0.67 -0.66 -0.73 -0.94 -0.67 0 0 0 0 0 0 0 0 0

> <atom.prop.CLASS>
PRPC PRPC PRPC GEND PRPC NCLA NCLA NCLA NCLA NCLA NCLA NCLA NCLA NCLA

$$$$
