79
     RDKit          3D

 13 12  0  0  0  0  0  0  0  0999 V2000
   18.8062    6.5948   -2.9454 C   0  0  0  0  0  0  0  0  0  0  0  0
   18.5614    5.3133   -3.7381 C   0  0  0  0  0  0  0  0  0  0  0  0
   17.3752    5.5869   -4.5136 O   0  0  0  0  0  0  0  0  0  0  0  0
   17.3442    6.0783   -5.7640 C   0  0  0  0  0  0  0  0  0  0  0  0
   18.3557    6.3466   -6.3748 O   0  0  0  0  0  0  0  0  0  0  0  0
   16.1437    6.2671   -6.3296 N   0  0  0  0  0  0  0  0  0  0  0  0
   19.6931    6.4798   -2.3224 H   0  0  0  0  0  0  0  0  0  0  0  0
   17.9430    6.8035   -2.3112 H   0  0  0  0  0  0  0  0  0  0  0  0
   18.9524    7.4287   -3.6326 H   0  0  0  0  0  0  0  0  0  0  0  0
   18.3900    4.4787   -3.0563 H   0  0  0  0  0  0  0  0  0  0  0  0
   19.4102    5.1126   -4.3948 H   0  0  0  0  0  0  0  0  0  0  0  0
   16.1261    6.6362   -7.2857 H   0  0  0  0  0  0  0  0  0  0  0  0
   15.2849    6.0387   -5.8259 H   0  0  0  0  0  0  0  0  0  0  0  0
  1  2  1  0
  1  7  1  0
  1  8  1  0
  1  9  1  0
  2  3  1  0
  2 10  1  0
  2 11  1  0
  3  4  1  0
  4  5  2  0
  4  6  1  0
  6 12  1  0
  6 13  1  0
M  END
> <intraLJ>
0.006     

> <intraEL>
-7.833    

> <intraDihe>
1.196     

> <interLJ>
0.000     

> <interEJ>
0.000     

> <gridLJ>
-3.286    

> <gridEL>
0.000     

> <totalE>
-9.917    

> <LGFE>
-3.286  

> <LE>
-0.548  

> <SMILES>
CCOC(N)=O

> <atom.dprop.GFE>
-0.43 -0.45 -0.87 0 -0.96 -0.57 0 0 0 0 0 0 0

> <atom.prop.CLASS>
PRPC PRPC GENA NCLA GENA GEND NCLA NCLA NCLA NCLA NCLA NCLA NCLA

$$$$
