40_1
     RDKit          3D

 11 11  0  0  0  0  0  0  0  0999 V2000
  -15.4773   10.0753  -14.7314 O   0  0  0  0  0  0  0  0  0  0  0  0
  -15.6115    8.9006  -15.4153 C   0  0  0  0  0  0  0  0  0  0  0  0
  -16.8709    8.3258  -15.5073 C   0  0  0  0  0  0  0  0  0  0  0  0
  -16.9794    7.1375  -16.2037 C   0  0  0  0  0  0  0  0  0  0  0  0
  -15.9048    6.5607  -16.7712 N   0  0  0  0  0  0  0  0  0  0  0  0
  -14.6982    7.1184  -16.6796 N   0  0  0  0  0  0  0  0  0  0  0  0
  -14.5303    8.2709  -16.0173 C   0  0  0  0  0  0  0  0  0  0  0  0
  -14.5578   10.4050  -14.7191 H   0  0  0  0  0  0  0  0  0  0  0  0
  -17.7119    8.7855  -15.0579 H   0  0  0  0  0  0  0  0  0  0  0  0
  -17.9155    6.6505  -16.3076 H   0  0  0  0  0  0  0  0  0  0  0  0
  -13.5559    8.6807  -15.9670 H   0  0  0  0  0  0  0  0  0  0  0  0
  1  2  1  0
  1  8  1  0
  2  3  2  0
  2  7  1  0
  3  4  1  0
  3  9  1  0
  4  5  2  0
  4 10  1  0
  5  6  1  0
  6  7  2  0
  7 11  1  0
M  END
> <intraLJ>
16.086    

> <intraEL>
2.571     

> <intraDihe>
0.000     

> <interLJ>
0.000     

> <interEJ>
0.000     

> <gridLJ>
-3.691    

> <gridEL>
0.000     

> <totalE>
14.967    

> <LGFE>
-3.691  

> <LE>
-0.527  

> <SMILES>
Oc1ccnnc1

> <atom.dprop.GFE>
-0.71 -0.27 -0.23 -0.19 -1 -1.1 -0.21 0 0 0 0

> <atom.prop.CLASS>
MEOO BENC BENC BENC GENA GENA BENC NCLA NCLA NCLA NCLA

$$$$
