69_1
     RDKit          3D

 14 14  0  0  0  0  0  0  0  0999 V2000
   10.7256   -3.5202    8.5004 C   0  0  0  0  0  0  0  0  0  0  0  0
   11.4376   -3.8702    7.2833 N   0  0  0  0  0  0  0  0  0  0  0  0
   11.0549   -4.7958    6.3641 C   0  0  0  0  0  0  0  0  0  0  0  0
   11.9056   -4.8772    5.3795 N   0  0  0  0  0  0  0  0  0  0  0  0
   12.8496   -3.9686    5.6887 C   0  0  0  0  0  0  0  0  0  0  0  0
   13.9383   -3.7843    4.8581 N   0  0  0  0  0  0  0  0  0  0  0  0
   12.5997   -3.3372    6.8523 C   0  0  0  0  0  0  0  0  0  0  0  0
    9.8225   -4.1124    8.5365 H   0  0  0  0  0  0  0  0  0  0  0  0
   10.5062   -2.4625    8.4438 H   0  0  0  0  0  0  0  0  0  0  0  0
   11.3839   -3.7465    9.3273 H   0  0  0  0  0  0  0  0  0  0  0  0
   10.1615   -5.3526    6.4920 H   0  0  0  0  0  0  0  0  0  0  0  0
   14.7848   -3.6637    5.4229 H   0  0  0  0  0  0  0  0  0  0  0  0
   13.9933   -4.6144    4.2548 H   0  0  0  0  0  0  0  0  0  0  0  0
   13.1373   -2.5845    7.3649 H   0  0  0  0  0  0  0  0  0  0  0  0
  1  2  1  0
  1  8  1  0
  1  9  1  0
  1 10  1  0
  2  3  1  0
  2  7  1  0
  3  4  2  0
  3 11  1  0
  4  5  1  0
  5  6  1  0
  5  7  2  0
  6 12  1  0
  6 13  1  0
  7 14  1  0
M  END
> <intraLJ>
0.484     

> <intraEL>
-6.835    

> <intraDihe>
2.003     

> <interLJ>
0.000     

> <interEJ>
0.000     

> <gridLJ>
-2.032    

> <gridEL>
0.000     

> <totalE>
-6.380    

> <LGFE>
-2.032  

> <LE>
-0.290  

> <SMILES>
Cn1cnc(N)c1

> <atom.dprop.GFE>
-0.24 -0.21 -0.21 -0.67 -0.14 -0.46 -0.1 0 0 0 0 0 0 0

> <atom.prop.CLASS>
PRPC GEHC GEHC GENA GEHC GEND GEHC NCLA NCLA NCLA NCLA NCLA NCLA NCLA

$$$$
