30_1
     RDKit          3D

 15 15  0  0  1  0  0  0  0  0999 V2000
   -1.8176   13.1053    7.4324 N   0  0  0  0  0  0  0  0  0  0  0  0
   -0.8400   12.2615    8.1707 C   0  0  0  0  0  0  0  0  0  0  0  0
   -1.5732   11.3212    9.1378 C   0  0  0  0  0  0  0  0  0  0  0  0
   -0.5658   11.1439   10.2855 C   0  0  0  0  0  0  0  0  0  0  0  0
    0.1950   12.3764   10.2750 N   0  0  0  0  0  0  0  0  0  0  0  0
    0.1163   13.0091    9.1185 C   0  0  0  0  0  0  0  0  0  0  0  0
    0.7162   14.0440    8.8538 O   0  0  0  0  0  0  0  0  0  0  0  0
   -2.1121   12.6447    6.5833 H   0  0  0  0  0  0  0  0  0  0  0  0
   -1.3625   13.9835    7.2058 H   0  0  0  0  0  0  0  0  0  0  0  0
   -0.2158   11.6691    7.4993 H   0  0  0  0  0  0  0  0  0  0  0  0
   -2.4651   11.8191    9.5196 H   0  0  0  0  0  0  0  0  0  0  0  0
   -1.8313   10.3741    8.6666 H   0  0  0  0  0  0  0  0  0  0  0  0
    0.0932   10.2962   10.0834 H   0  0  0  0  0  0  0  0  0  0  0  0
   -1.0859   10.9998   11.2357 H   0  0  0  0  0  0  0  0  0  0  0  0
    0.7574   12.7220   11.0369 H   0  0  0  0  0  0  0  0  0  0  0  0
  1  2  1  0
  1  8  1  0
  1  9  1  0
  2  3  1  0
  2  6  1  0
  2 10  1  0
  3  4  1  0
  3 11  1  0
  3 12  1  0
  4  5  1  0
  4 13  1  0
  4 14  1  0
  5  6  1  0
  5 15  1  0
  6  7  2  0
M  END
> <intraLJ>
0.264     

> <intraEL>
2.285     

> <intraDihe>
8.139     

> <interLJ>
0.000     

> <interEJ>
0.000     

> <gridLJ>
-2.250    

> <gridEL>
0.000     

> <totalE>
8.438     

> <LGFE>
-2.250  

> <LE>
-0.321  

> <SMILES>
NC1CCNC1=O

> <atom.dprop.GFE>
-0.56 -0.31 -0.3 -0.23 -0.23 -0.15 -0.48 0 0 0 0 0 0 0 0

> <atom.prop.CLASS>
GEND PRPC PRPC PRPC GEND GEHC GENA NCLA NCLA NCLA NCLA NCLA NCLA NCLA NCLA

$$$$
