26_2
     RDKit          3D

 13 13  0  0  0  0  0  0  0  0999 V2000
  -39.4123    7.5227   20.4552 O   0  0  0  0  0  0  0  0  0  0  0  0
  -39.5673    6.2861   21.1945 C   0  0  0  0  0  0  0  0  0  0  0  0
  -40.4811    6.6203   22.3516 C   0  0  0  0  0  0  0  0  0  0  0  0
  -41.7454    6.2379   22.6437 C   0  0  0  0  0  0  0  0  0  0  0  0
  -42.0897    6.8565   23.8409 C   0  0  0  0  0  0  0  0  0  0  0  0
  -41.1088    7.5891   24.2903 N   0  0  0  0  0  0  0  0  0  0  0  0
  -40.1200    7.4378   23.3659 N   0  0  0  0  0  0  0  0  0  0  0  0
  -38.8305    7.3842   19.6886 H   0  0  0  0  0  0  0  0  0  0  0  0
  -38.6075    5.9686   21.5847 H   0  0  0  0  0  0  0  0  0  0  0  0
  -40.0471    5.5424   20.5710 H   0  0  0  0  0  0  0  0  0  0  0  0
  -42.3597    5.5929   22.0725 H   0  0  0  0  0  0  0  0  0  0  0  0
  -43.0195    6.7596   24.3418 H   0  0  0  0  0  0  0  0  0  0  0  0
  -39.1898    7.8960   23.4257 H   0  0  0  0  0  0  0  0  0  0  0  0
  1  2  1  0
  1  8  1  0
  2  3  1  0
  2  9  1  0
  2 10  1  0
  3  4  2  0
  3  7  1  0
  4  5  1  0
  4 11  1  0
  5  6  2  0
  5 12  1  0
  6  7  1  0
  7 13  1  0
M  END
> <intraLJ>
0.082     

> <intraEL>
1.023     

> <intraDihe>
1.726     

> <interLJ>
0.000     

> <interEJ>
0.000     

> <gridLJ>
-2.874    

> <gridEL>
0.000     

> <totalE>
-0.042    

> <LGFE>
-2.874  

> <LE>
-0.411  

> <SMILES>
OCc1ccn[nH]1

> <atom.dprop.GFE>
-0.67 -0.6 -0.18 -0.14 -0.14 -0.52 -0.63 0 0 0 0 0 0

> <atom.prop.CLASS>
MEOO PRPC GEHC GEHC GEHC GENA GEND NCLA NCLA NCLA NCLA NCLA NCLA

$$$$
