55
     RDKit          3D

  7  7  0  0  0  0  0  0  0  0999 V2000
   17.9227   15.9797  -20.4240 C   0  0  0  0  0  0  0  0  0  0  0  0
   16.7083   16.1196  -20.7977 N   0  0  0  0  0  0  0  0  0  0  0  0
   16.7389   16.1273  -22.1689 N   0  0  0  0  0  0  0  0  0  0  0  0
   17.9693   15.9911  -22.4893 C   0  0  0  0  0  0  0  0  0  0  0  0
   18.7398   15.8961  -21.4392 O   0  0  0  0  0  0  0  0  0  0  0  0
   18.2993   15.9297  -19.4331 H   0  0  0  0  0  0  0  0  0  0  0  0
   18.3899   15.9510  -23.4622 H   0  0  0  0  0  0  0  0  0  0  0  0
  1  2  2  0
  1  5  1  0
  1  6  1  0
  2  3  1  0
  3  4  2  0
  4  5  1  0
  4  7  1  0
M  END
> <intraLJ>
-0.193    

> <intraEL>
-0.061    

> <intraDihe>
0.000     

> <interLJ>
0.000     

> <interEJ>
0.000     

> <gridLJ>
-2.066    

> <gridEL>
0.000     

> <totalE>
-2.320    

> <LGFE>
-2.066  

> <LE>
-0.413  

> <SMILES>
c1nnco1

> <atom.dprop.GFE>
-0.001 -0.9 -0.91 -0.055 -0.2 0 0

> <atom.prop.CLASS>
GEHC GENA GENA GEHC GENA NCLA NCLA

$$$$
