23_2
     RDKit          3D

 10 10  0  0  0  0  0  0  0  0999 V2000
    9.5370   -5.8013    1.1714 O   0  0  0  0  0  0  0  0  0  0  0  0
    8.6129   -5.6352    2.0033 C   0  0  0  0  0  0  0  0  0  0  0  0
    8.8597   -5.8592    3.3276 N   0  0  0  0  0  0  0  0  0  0  0  0
    7.8945   -5.6849    4.1938 C   0  0  0  0  0  0  0  0  0  0  0  0
    6.6335   -5.2789    3.7853 C   0  0  0  0  0  0  0  0  0  0  0  0
    6.4208   -5.0624    2.4326 C   0  0  0  0  0  0  0  0  0  0  0  0
    7.3831   -5.2349    1.5627 N   0  0  0  0  0  0  0  0  0  0  0  0
    8.1007   -5.8621    5.2163 H   0  0  0  0  0  0  0  0  0  0  0  0
    5.8550   -5.1392    4.4854 H   0  0  0  0  0  0  0  0  0  0  0  0
    5.4738   -4.7525    2.0764 H   0  0  0  0  0  0  0  0  0  0  0  0
  1  2  1  0
  2  3  2  0
  2  7  1  0
  3  4  1  0
  4  5  2  0
  4  8  1  0
  5  6  1  0
  5  9  1  0
  6  7  2  0
  6 10  1  0
M  CHG  1   1  -1
M  END
> <intraLJ>
17.983    

> <intraEL>
-7.943    

> <intraDihe>
0.000     

> <interLJ>
0.000     

> <interEJ>
0.000     

> <gridLJ>
-3.862    

> <gridEL>
0.000     

> <totalE>
6.179     

> <LGFE>
-3.862  

> <LE>
-0.552  

> <SMILES>
[O-]c1ncccn1

> <atom.dprop.GFE>
0 -0.38 -1.2 -0.25 -0.24 -0.28 -1.5 0 0 0

> <atom.prop.CLASS>
NCLA GEHC GENA BENC BENC BENC GENA NCLA NCLA NCLA

$$$$
