9_2
     RDKit          3D

 13 13  0  0  0  0  0  0  0  0999 V2000
   -1.7086    2.4525    8.9783 O   0  0  0  0  0  0  0  0  0  0  0  0
   -2.9033    1.6682    9.3479 C   0  0  0  0  0  0  0  0  0  0  0  0
   -2.8511    1.2084   10.8337 C   0  0  0  0  0  0  0  0  0  0  0  0
   -1.9726    0.1059   10.3588 N   0  0  0  0  0  0  0  0  0  0  0  0
   -2.7083    0.1513    9.0667 C   0  0  0  0  0  0  0  0  0  0  0  0
   -1.9433    3.2065    8.4026 H   0  0  0  0  0  0  0  0  0  0  0  0
   -3.8266    2.1169    9.0079 H   0  0  0  0  0  0  0  0  0  0  0  0
   -3.8066    0.8510   11.1956 H   0  0  0  0  0  0  0  0  0  0  0  0
   -2.3607    1.9099   11.4946 H   0  0  0  0  0  0  0  0  0  0  0  0
   -2.0667   -0.8067   10.8973 H   0  0  0  0  0  0  0  0  0  0  0  0
   -0.9700    0.4528   10.2333 H   0  0  0  0  0  0  0  0  0  0  0  0
   -2.0947   -0.0606    8.2007 H   0  0  0  0  0  0  0  0  0  0  0  0
   -3.6360   -0.4040    9.0978 H   0  0  0  0  0  0  0  0  0  0  0  0
  1  2  1  0
  1  6  1  0
  2  3  1  0
  2  5  1  0
  2  7  1  0
  3  4  1  0
  3  8  1  0
  3  9  1  0
  4  5  1  0
  4 10  1  0
  4 11  1  0
  5 12  1  0
  5 13  1  0
M  CHG  1   4   1
M  END
> <intraLJ>
3.656     

> <intraEL>
5.220     

> <intraDihe>
6.360     

> <interLJ>
0.000     

> <interEJ>
0.000     

> <gridLJ>
-3.673    

> <gridEL>
0.000     

> <totalE>
11.563    

> <LGFE>
-3.673  

> <LE>
-0.735  

> <SMILES>
OC1C[NH2+]C1

> <atom.dprop.GFE>
-0.96 -0.43 -0.19 -1.8 -0.3 0 0 0 0 0 0 0 0

> <atom.prop.CLASS>
MEOO PRPC PRPC MAMN PRPC NCLA NCLA NCLA NCLA NCLA NCLA NCLA NCLA

$$$$
