39_1
     RDKit          3D

 11 11  0  0  0  0  0  0  0  0999 V2000
  -38.5221    7.2008   15.5362 O   0  0  0  0  0  0  0  0  0  0  0  0
  -37.5479    7.9506   15.4381 C   0  0  0  0  0  0  0  0  0  0  0  0
  -37.4082    9.2452   16.0223 C   0  0  0  0  0  0  0  0  0  0  0  0
  -36.2588    9.9546   15.8175 C   0  0  0  0  0  0  0  0  0  0  0  0
  -35.2106    9.4005   15.0238 C   0  0  0  0  0  0  0  0  0  0  0  0
  -35.3209    8.2235   14.4856 N   0  0  0  0  0  0  0  0  0  0  0  0
  -36.4790    7.5051   14.6908 N   0  0  0  0  0  0  0  0  0  0  0  0
  -38.2085    9.6213   16.6037 H   0  0  0  0  0  0  0  0  0  0  0  0
  -36.1307   10.9178   16.2397 H   0  0  0  0  0  0  0  0  0  0  0  0
  -34.3211    9.9550   14.8674 H   0  0  0  0  0  0  0  0  0  0  0  0
  -36.5809    6.5666   14.2672 H   0  0  0  0  0  0  0  0  0  0  0  0
  1  2  2  0
  2  3  1  0
  2  7  1  0
  3  4  2  0
  3  8  1  0
  4  5  1  0
  4  9  1  0
  5  6  2  0
  5 10  1  0
  6  7  1  0
  7 11  1  0
M  END
> <intraLJ>
10.206    

> <intraEL>
-0.642    

> <intraDihe>
0.000     

> <interLJ>
0.000     

> <interEJ>
0.000     

> <gridLJ>
-2.788    

> <gridEL>
0.000     

> <totalE>
6.776     

> <LGFE>
-2.788  

> <LE>
-0.398  

> <SMILES>
O=c1cccn[nH]1

> <atom.dprop.GFE>
-0.67 -0.25 -0.099 -0.13 -0.2 -0.79 -0.66 0 0 0 0

> <atom.prop.CLASS>
GENA GEHC BENC BENC BENC GENA GEND NCLA NCLA NCLA NCLA

$$$$
