26_1
     RDKit          3D

 13 13  0  0  0  0  0  0  0  0999 V2000
   12.1411   15.0299   -7.1882 O   0  0  0  0  0  0  0  0  0  0  0  0
   11.4883   16.3037   -7.0790 C   0  0  0  0  0  0  0  0  0  0  0  0
   10.3073   16.2098   -8.0374 C   0  0  0  0  0  0  0  0  0  0  0  0
    8.9687   16.1560   -7.6628 C   0  0  0  0  0  0  0  0  0  0  0  0
    8.2436   16.0771   -8.8003 C   0  0  0  0  0  0  0  0  0  0  0  0
    9.1420   16.0860   -9.8061 N   0  0  0  0  0  0  0  0  0  0  0  0
   10.4188   16.1669   -9.3470 N   0  0  0  0  0  0  0  0  0  0  0  0
   11.6022   14.5301   -7.8424 H   0  0  0  0  0  0  0  0  0  0  0  0
   12.1573   17.0849   -7.4121 H   0  0  0  0  0  0  0  0  0  0  0  0
   11.1201   16.4386   -6.0709 H   0  0  0  0  0  0  0  0  0  0  0  0
    8.5849   16.1726   -6.6750 H   0  0  0  0  0  0  0  0  0  0  0  0
    7.1994   16.0184   -8.9688 H   0  0  0  0  0  0  0  0  0  0  0  0
    8.9091   16.0371  -10.8165 H   0  0  0  0  0  0  0  0  0  0  0  0
  1  2  1  0
  1  8  1  0
  2  3  1  0
  2  9  1  0
  2 10  1  0
  3  4  1  0
  3  7  2  0
  4  5  2  0
  4 11  1  0
  5  6  1  0
  5 12  1  0
  6  7  1  0
  6 13  1  0
M  END
> <intraLJ>
0.292     

> <intraEL>
0.186     

> <intraDihe>
6.115     

> <interLJ>
0.000     

> <interEJ>
0.000     

> <gridLJ>
-2.818    

> <gridEL>
0.000     

> <totalE>
3.775     

> <LGFE>
-2.818  

> <LE>
-0.403  

> <SMILES>
OCc1cc[nH]n1

> <atom.dprop.GFE>
-0.99 -0.063 -0.09 -0.079 -0.14 -0.78 -0.68 0 0 0 0 0 0

> <atom.prop.CLASS>
MEOO PRPC GEHC GEHC GEHC GEND GENA NCLA NCLA NCLA NCLA NCLA NCLA

$$$$
