57_1
     RDKit          3D

 15 15  0  0  0  0  0  0  0  0999 V2000
  -16.3645    0.9363  -21.1356 O   0  0  0  0  0  0  0  0  0  0  0  0
  -15.1744    0.4063  -21.0986 C   0  0  0  0  0  0  0  0  0  0  0  0
  -15.1559   -0.7202  -20.6832 O   0  0  0  0  0  0  0  0  0  0  0  0
  -13.9770    1.2168  -21.5623 C   0  0  0  0  0  0  0  0  0  0  0  0
  -12.6151    0.6398  -21.0815 C   0  0  0  0  0  0  0  0  0  0  0  0
  -12.1815    2.1176  -20.8474 C   0  0  0  0  0  0  0  0  0  0  0  0
  -13.6914    2.4634  -20.6785 C   0  0  0  0  0  0  0  0  0  0  0  0
  -16.8962    0.2139  -20.7972 H   0  0  0  0  0  0  0  0  0  0  0  0
  -14.0152    1.4288  -22.6242 H   0  0  0  0  0  0  0  0  0  0  0  0
  -12.0549    0.1307  -21.8534 H   0  0  0  0  0  0  0  0  0  0  0  0
  -12.6850    0.0794  -20.1580 H   0  0  0  0  0  0  0  0  0  0  0  0
  -11.7476    2.5686  -21.7306 H   0  0  0  0  0  0  0  0  0  0  0  0
  -11.5916    2.2673  -19.9535 H   0  0  0  0  0  0  0  0  0  0  0  0
  -14.0266    2.3562  -19.6547 H   0  0  0  0  0  0  0  0  0  0  0  0
  -13.9826    3.4017  -21.1315 H   0  0  0  0  0  0  0  0  0  0  0  0
  1  2  1  0
  1  8  1  0
  2  3  2  0
  2  4  1  0
  4  5  1  0
  4  7  1  0
  4  9  1  0
  5  6  1  0
  5 10  1  0
  5 11  1  0
  6  7  1  0
  6 12  1  0
  6 13  1  0
  7 14  1  0
  7 15  1  0
M  END
> <intraLJ>
-0.771    

> <intraEL>
-1.741    

> <intraDihe>
17.651    

> <interLJ>
0.000     

> <interEJ>
0.000     

> <gridLJ>
-2.145    

> <gridEL>
0.000     

> <totalE>
12.994    

> <LGFE>
-2.145  

> <LE>
-0.306  

> <SMILES>
O=C(O)C1CCC1

> <atom.dprop.GFE>
-0.72 0 -1 -0.083 -0.099 -0.14 -0.11 0 0 0 0 0 0 0 0

> <atom.prop.CLASS>
MEOO NCLA GENA PRPC PRPC PRPC PRPC NCLA NCLA NCLA NCLA NCLA NCLA NCLA NCLA

$$$$
