52_1
     RDKit          3D

 10 10  0  0  0  0  0  0  0  0999 V2000
  -20.7908    9.2327   12.3544 C   0  0  0  0  0  0  0  0  0  0  0  0
  -19.5903   10.0215   11.8853 C   0  0  0  0  0  0  0  0  0  0  0  0
  -19.2705   10.3509   10.6906 N   0  0  0  0  0  0  0  0  0  0  0  0
  -18.1086   11.0522   10.7928 N   0  0  0  0  0  0  0  0  0  0  0  0
  -17.7387   11.1404   12.0388 N   0  0  0  0  0  0  0  0  0  0  0  0
  -18.6696   10.4955   12.7054 N   0  0  0  0  0  0  0  0  0  0  0  0
  -21.3928    8.9821   11.4800 H   0  0  0  0  0  0  0  0  0  0  0  0
  -21.3642    9.8500   13.0460 H   0  0  0  0  0  0  0  0  0  0  0  0
  -20.4394    8.3250   12.8449 H   0  0  0  0  0  0  0  0  0  0  0  0
  -18.6619   10.3862   13.7330 H   0  0  0  0  0  0  0  0  0  0  0  0
  1  2  1  0
  1  7  1  0
  1  8  1  0
  1  9  1  0
  2  3  2  0
  2  6  1  0
  3  4  1  0
  4  5  2  0
  5  6  1  0
  6 10  1  0
M  END
> <intraLJ>
-0.215    

> <intraEL>
-1.684    

> <intraDihe>
1.140     

> <interLJ>
0.000     

> <interEJ>
0.000     

> <gridLJ>
-2.021    

> <gridEL>
0.000     

> <totalE>
-2.781    

> <LGFE>
-2.021  

> <LE>
-0.337  

> <SMILES>
Cc1nnn[nH]1

> <atom.dprop.GFE>
-0.0057 -0.12 -0.6 -0.56 -0.37 -0.37 0 0 0 0

> <atom.prop.CLASS>
PRPC GEHC GENA GENA GENA GEND NCLA NCLA NCLA NCLA

$$$$
