80
     RDKit          3D

 16 16  0  0  0  0  0  0  0  0999 V2000
   17.1436    9.8037  -45.6803 N   0  0  0  0  0  0  0  0  0  0  0  0
   16.4934   10.7084  -46.4286 C   0  0  0  0  0  0  0  0  0  0  0  0
   16.0010   10.2968  -47.4541 O   0  0  0  0  0  0  0  0  0  0  0  0
   16.4227   12.1474  -45.9460 C   0  0  0  0  0  0  0  0  0  0  0  0
   15.9999   13.1531  -47.0530 C   0  0  0  0  0  0  0  0  0  0  0  0
   17.0628   14.1182  -46.4485 C   0  0  0  0  0  0  0  0  0  0  0  0
   17.8039   12.8595  -45.9085 C   0  0  0  0  0  0  0  0  0  0  0  0
   17.1744    8.8588  -46.0242 H   0  0  0  0  0  0  0  0  0  0  0  0
   17.5788   10.0647  -44.8148 H   0  0  0  0  0  0  0  0  0  0  0  0
   15.8557   12.2419  -45.0274 H   0  0  0  0  0  0  0  0  0  0  0  0
   14.9816   13.5053  -46.9632 H   0  0  0  0  0  0  0  0  0  0  0  0
   16.2586   12.8311  -48.0535 H   0  0  0  0  0  0  0  0  0  0  0  0
   16.6602   14.7361  -45.6552 H   0  0  0  0  0  0  0  0  0  0  0  0
   17.6216   14.6775  -47.1859 H   0  0  0  0  0  0  0  0  0  0  0  0
   18.5160   12.4648  -46.6213 H   0  0  0  0  0  0  0  0  0  0  0  0
   18.2118   12.9789  -44.9142 H   0  0  0  0  0  0  0  0  0  0  0  0
  1  2  1  0
  1  8  1  0
  1  9  1  0
  2  3  2  0
  2  4  1  0
  4  5  1  0
  4  7  1  0
  4 10  1  0
  5  6  1  0
  5 11  1  0
  5 12  1  0
  6  7  1  0
  6 13  1  0
  6 14  1  0
  7 15  1  0
  7 16  1  0
M  END
> <intraLJ>
0.063     

> <intraEL>
-0.840    

> <intraDihe>
21.648    

> <interLJ>
0.000     

> <interEJ>
0.000     

> <gridLJ>
-2.347    

> <gridEL>
0.000     

> <totalE>
18.524    

> <LGFE>
-2.347  

> <LE>
-0.335  

> <SMILES>
NC(=O)C1CCC1

> <atom.dprop.GFE>
-0.67 0 -0.43 -0.32 -0.26 -0.32 -0.35 0 0 0 0 0 0 0 0 0

> <atom.prop.CLASS>
GEND NCLA GENA PRPC PRPC PRPC PRPC NCLA NCLA NCLA NCLA NCLA NCLA NCLA NCLA NCLA

$$$$
