76_1
     RDKit          3D

 22 21  0  0  0  0  0  0  0  0999 V2000
  -15.2127    0.6493   21.4617 C   0  0  0  0  0  0  0  0  0  0  0  0
  -16.5308    1.0799   22.1173 C   0  0  0  0  0  0  0  0  0  0  0  0
  -16.2165    2.0307   23.2828 C   0  0  0  0  0  0  0  0  0  0  0  0
  -17.3067   -0.1722   22.5686 C   0  0  0  0  0  0  0  0  0  0  0  0
  -18.6661    0.1511   23.2114 C   0  0  0  0  0  0  0  0  0  0  0  0
  -19.5863    0.8553   22.2163 C   0  0  0  0  0  0  0  0  0  0  0  0
  -20.9205    1.0354   22.8158 N   0  0  0  0  0  0  0  0  0  0  0  0
  -14.6698    1.5255   21.1072 H   0  0  0  0  0  0  0  0  0  0  0  0
  -15.4159    0.0004   20.6077 H   0  0  0  0  0  0  0  0  0  0  0  0
  -14.5912    0.1108   22.1785 H   0  0  0  0  0  0  0  0  0  0  0  0
  -17.1268    1.6176   21.3754 H   0  0  0  0  0  0  0  0  0  0  0  0
  -15.6734    1.4997   24.0659 H   0  0  0  0  0  0  0  0  0  0  0  0
  -17.1370    2.4405   23.6971 H   0  0  0  0  0  0  0  0  0  0  0  0
  -15.6066    2.8634   22.9280 H   0  0  0  0  0  0  0  0  0  0  0  0
  -16.6981   -0.7372   23.2780 H   0  0  0  0  0  0  0  0  0  0  0  0
  -17.4815   -0.8028   21.6954 H   0  0  0  0  0  0  0  0  0  0  0  0
  -18.5177    0.8046   24.0727 H   0  0  0  0  0  0  0  0  0  0  0  0
  -19.1494   -0.7664   23.5437 H   0  0  0  0  0  0  0  0  0  0  0  0
  -19.6623    0.2552   21.3064 H   0  0  0  0  0  0  0  0  0  0  0  0
  -19.1644    1.8300   21.9615 H   0  0  0  0  0  0  0  0  0  0  0  0
  -21.3135    0.1383   23.0690 H   0  0  0  0  0  0  0  0  0  0  0  0
  -21.5391    1.5043   22.1686 H   0  0  0  0  0  0  0  0  0  0  0  0
  1  2  1  0
  1  8  1  0
  1  9  1  0
  1 10  1  0
  2  3  1  0
  2  4  1  0
  2 11  1  0
  3 12  1  0
  3 13  1  0
  3 14  1  0
  4  5  1  0
  4 15  1  0
  4 16  1  0
  5  6  1  0
  5 17  1  0
  5 18  1  0
  6  7  1  0
  6 19  1  0
  6 20  1  0
  7 21  1  0
  7 22  1  0
M  END
> <intraLJ>
0.750     

> <intraEL>
-1.000    

> <intraDihe>
0.177     

> <interLJ>
0.000     

> <interEJ>
0.000     

> <gridLJ>
-3.780    

> <gridEL>
0.000     

> <totalE>
-3.853    

> <LGFE>
-3.780  

> <LE>
-0.540  

> <SMILES>
CC(C)CCCN

> <atom.dprop.GFE>
-0.5 -0.58 -0.39 -0.51 -0.5 -0.38 -0.92 0 0 0 0 0 0 0 0 0 0 0 0 0 0 0

> <atom.prop.CLASS>
PRPC PRPC PRPC PRPC PRPC PRPC GEND NCLA NCLA NCLA NCLA NCLA NCLA NCLA NCLA NCLA NCLA NCLA NCLA NCLA NCLA NCLA

$$$$
