65
     RDKit          3D

 12 12  0  0  0  0  0  0  0  0999 V2000
    6.8884   -4.0357    2.4036 N   0  0  0  0  0  0  0  0  0  0  0  0
    7.8600   -4.9481    2.3816 C   0  0  0  0  0  0  0  0  0  0  0  0
    7.8336   -5.8244    1.3870 N   0  0  0  0  0  0  0  0  0  0  0  0
    8.7951   -6.7314    1.3575 C   0  0  0  0  0  0  0  0  0  0  0  0
    9.7804   -6.7375    2.3337 C   0  0  0  0  0  0  0  0  0  0  0  0
    9.7334   -5.7758    3.3337 C   0  0  0  0  0  0  0  0  0  0  0  0
    8.7650   -4.8768    3.3483 N   0  0  0  0  0  0  0  0  0  0  0  0
    7.1354   -3.2062    2.9490 H   0  0  0  0  0  0  0  0  0  0  0  0
    6.4458   -3.9057    1.4899 H   0  0  0  0  0  0  0  0  0  0  0  0
    8.7970   -7.4486    0.5755 H   0  0  0  0  0  0  0  0  0  0  0  0
   10.5528   -7.4602    2.3174 H   0  0  0  0  0  0  0  0  0  0  0  0
   10.4691   -5.7465    4.0975 H   0  0  0  0  0  0  0  0  0  0  0  0
  1  2  1  0
  1  8  1  0
  1  9  1  0
  2  3  2  0
  2  7  1  0
  3  4  1  0
  4  5  2  0
  4 10  1  0
  5  6  1  0
  5 11  1  0
  6  7  2  0
  6 12  1  0
M  END
> <intraLJ>
20.123    

> <intraEL>
-18.333   

> <intraDihe>
1.049     

> <interLJ>
0.000     

> <interEJ>
0.000     

> <gridLJ>
-4.790    

> <gridEL>
0.000     

> <totalE>
-1.951    

> <LGFE>
-4.790  

> <LE>
-0.684  

> <SMILES>
Nc1ncccn1

> <atom.dprop.GFE>
-1.1 -0.4 -1.5 -0.22 -0.16 -0.16 -1.2 0 0 0 0 0

> <atom.prop.CLASS>
GEND GEHC GENA BENC BENC BENC GENA NCLA NCLA NCLA NCLA NCLA

$$$$
