26_1
     RDKit          3D

 13 13  0  0  0  0  0  0  0  0999 V2000
   19.7014   -5.3315  -10.0674 O   0  0  0  0  0  0  0  0  0  0  0  0
   19.2768   -4.0246   -9.6523 C   0  0  0  0  0  0  0  0  0  0  0  0
   18.3697   -4.2812   -8.4550 C   0  0  0  0  0  0  0  0  0  0  0  0
   18.6695   -3.9619   -7.1347 C   0  0  0  0  0  0  0  0  0  0  0  0
   17.6140   -4.3501   -6.3856 C   0  0  0  0  0  0  0  0  0  0  0  0
   16.7271   -4.8795   -7.2528 N   0  0  0  0  0  0  0  0  0  0  0  0
   17.1832   -4.8429   -8.5327 N   0  0  0  0  0  0  0  0  0  0  0  0
   19.2642   -5.9467   -9.4361 H   0  0  0  0  0  0  0  0  0  0  0  0
   18.7028   -3.5608  -10.4423 H   0  0  0  0  0  0  0  0  0  0  0  0
   20.1344   -3.4476   -9.3333 H   0  0  0  0  0  0  0  0  0  0  0  0
   19.5556   -3.5024   -6.7784 H   0  0  0  0  0  0  0  0  0  0  0  0
   17.4291   -4.2936   -5.3441 H   0  0  0  0  0  0  0  0  0  0  0  0
   15.8019   -5.2739   -6.9959 H   0  0  0  0  0  0  0  0  0  0  0  0
  1  2  1  0
  1  8  1  0
  2  3  1  0
  2  9  1  0
  2 10  1  0
  3  4  1  0
  3  7  2  0
  4  5  2  0
  4 11  1  0
  5  6  1  0
  5 12  1  0
  6  7  1  0
  6 13  1  0
M  END
> <intraLJ>
0.281     

> <intraEL>
0.189     

> <intraDihe>
6.123     

> <interLJ>
0.000     

> <interEJ>
0.000     

> <gridLJ>
-2.518    

> <gridEL>
0.000     

> <totalE>
4.075     

> <LGFE>
-2.518  

> <LE>
-0.360  

> <SMILES>
OCc1cc[nH]n1

> <atom.dprop.GFE>
-0.23 -0.23 -0.2 -0.21 -0.14 -0.42 -1.1 0 0 0 0 0 0

> <atom.prop.CLASS>
MEOO PRPC GEHC GEHC GEHC GEND GENA NCLA NCLA NCLA NCLA NCLA NCLA

$$$$
