19_2
     RDKit          3D

 11 11  0  0  0  0  0  0  0  0999 V2000
  -15.6423   11.5544  -12.0358 N   0  0  0  0  0  0  0  0  0  0  0  0
  -15.7864   11.3678  -10.6454 C   0  0  0  0  0  0  0  0  0  0  0  0
  -16.9106   11.2405   -9.9049 C   0  0  0  0  0  0  0  0  0  0  0  0
  -16.4953   11.0781   -8.5859 C   0  0  0  0  0  0  0  0  0  0  0  0
  -15.1913   11.0935   -8.4802 N   0  0  0  0  0  0  0  0  0  0  0  0
  -14.7512   11.2676   -9.7699 N   0  0  0  0  0  0  0  0  0  0  0  0
  -14.7946   12.0642  -12.3331 H   0  0  0  0  0  0  0  0  0  0  0  0
  -16.4980   11.9006  -12.4984 H   0  0  0  0  0  0  0  0  0  0  0  0
  -17.9055   11.2598  -10.2634 H   0  0  0  0  0  0  0  0  0  0  0  0
  -17.1383   10.9542   -7.7516 H   0  0  0  0  0  0  0  0  0  0  0  0
  -13.7528   11.3054  -10.0375 H   0  0  0  0  0  0  0  0  0  0  0  0
  1  2  1  0
  1  7  1  0
  1  8  1  0
  2  3  2  0
  2  6  1  0
  3  4  1  0
  3  9  1  0
  4  5  2  0
  4 10  1  0
  5  6  1  0
  6 11  1  0
M  END
> <intraLJ>
-0.470    

> <intraEL>
-4.943    

> <intraDihe>
1.563     

> <interLJ>
0.000     

> <interEJ>
0.000     

> <gridLJ>
-2.430    

> <gridEL>
0.000     

> <totalE>
-6.280    

> <LGFE>
-2.430  

> <LE>
-0.405  

> <SMILES>
Nc1ccn[nH]1

> <atom.dprop.GFE>
-0.36 -0.12 -0.12 -0.24 -1 -0.56 0 0 0 0 0

> <atom.prop.CLASS>
GEND GEHC GEHC GEHC GENA GEND NCLA NCLA NCLA NCLA NCLA

$$$$
