9_2
     RDKit          3D

 13 13  0  0  0  0  0  0  0  0999 V2000
  -36.5304    0.5999    9.6450 O   0  0  0  0  0  0  0  0  0  0  0  0
  -37.1516   -0.6931    9.9936 C   0  0  0  0  0  0  0  0  0  0  0  0
  -36.6006   -1.2507   11.3379 C   0  0  0  0  0  0  0  0  0  0  0  0
  -35.4418   -1.7423   10.5455 N   0  0  0  0  0  0  0  0  0  0  0  0
  -36.3670   -1.8923    9.3902 C   0  0  0  0  0  0  0  0  0  0  0  0
  -37.1861    1.2180    9.2669 H   0  0  0  0  0  0  0  0  0  0  0  0
  -38.2257   -0.6947    9.8681 H   0  0  0  0  0  0  0  0  0  0  0  0
  -37.2035   -2.0570   11.7357 H   0  0  0  0  0  0  0  0  0  0  0  0
  -36.3486   -0.4871   12.0610 H   0  0  0  0  0  0  0  0  0  0  0  0
  -35.0106   -2.6494   10.8962 H   0  0  0  0  0  0  0  0  0  0  0  0
  -34.7452   -0.9518   10.3695 H   0  0  0  0  0  0  0  0  0  0  0  0
  -35.9131   -1.6832    8.4302 H   0  0  0  0  0  0  0  0  0  0  0  0
  -36.9250   -2.8183    9.4231 H   0  0  0  0  0  0  0  0  0  0  0  0
  1  2  1  0
  1  6  1  0
  2  3  1  0
  2  5  1  0
  2  7  1  0
  3  4  1  0
  3  8  1  0
  3  9  1  0
  4  5  1  0
  4 10  1  0
  4 11  1  0
  5 12  1  0
  5 13  1  0
M  CHG  1   4   1
M  END
> <intraLJ>
3.656     

> <intraEL>
5.220     

> <intraDihe>
6.360     

> <interLJ>
0.000     

> <interEJ>
0.000     

> <gridLJ>
-2.134    

> <gridEL>
0.000     

> <totalE>
13.102    

> <LGFE>
-2.134  

> <LE>
-0.427  

> <SMILES>
OC1C[NH2+]C1

> <atom.dprop.GFE>
-0.47 -0.069 -0.15 -1.4 -0.077 0 0 0 0 0 0 0 0

> <atom.prop.CLASS>
MEOO PRPC PRPC MAMN PRPC NCLA NCLA NCLA NCLA NCLA NCLA NCLA NCLA

$$$$
