20_1
     RDKit          3D

 17 17  0  0  0  0  0  0  0  0999 V2000
   17.4705   13.2079  -34.5870 N   0  0  0  0  0  0  0  0  0  0  0  0
   16.8310   14.3945  -34.0079 C   0  0  0  0  0  0  0  0  0  0  0  0
   15.3488   14.4514  -34.3386 C   0  0  0  0  0  0  0  0  0  0  0  0
   14.9736   15.9181  -34.1051 C   0  0  0  0  0  0  0  0  0  0  0  0
   16.2622   16.7161  -34.3487 C   0  0  0  0  0  0  0  0  0  0  0  0
   17.3497   15.6771  -34.6400 C   0  0  0  0  0  0  0  0  0  0  0  0
   17.0670   12.3725  -34.1884 H   0  0  0  0  0  0  0  0  0  0  0  0
   18.4634   13.2285  -34.4006 H   0  0  0  0  0  0  0  0  0  0  0  0
   16.9699   14.4340  -32.9243 H   0  0  0  0  0  0  0  0  0  0  0  0
   14.7712   13.7797  -33.7033 H   0  0  0  0  0  0  0  0  0  0  0  0
   15.2009   14.1969  -35.3899 H   0  0  0  0  0  0  0  0  0  0  0  0
   14.6492   16.0556  -33.0721 H   0  0  0  0  0  0  0  0  0  0  0  0
   14.1804   16.2276  -34.7872 H   0  0  0  0  0  0  0  0  0  0  0  0
   16.5167   17.2843  -33.4520 H   0  0  0  0  0  0  0  0  0  0  0  0
   16.1487   17.3953  -35.1955 H   0  0  0  0  0  0  0  0  0  0  0  0
   17.4415   15.5366  -35.7184 H   0  0  0  0  0  0  0  0  0  0  0  0
   18.3118   15.9681  -34.2176 H   0  0  0  0  0  0  0  0  0  0  0  0
  1  2  1  0
  1  7  1  0
  1  8  1  0
  2  3  1  0
  2  6  1  0
  2  9  1  0
  3  4  1  0
  3 10  1  0
  3 11  1  0
  4  5  1  0
  4 12  1  0
  4 13  1  0
  5  6  1  0
  5 14  1  0
  5 15  1  0
  6 16  1  0
  6 17  1  0
M  END
> <intraLJ>
0.465     

> <intraEL>
-1.894    

> <intraDihe>
13.208    

> <interLJ>
0.000     

> <interEJ>
0.000     

> <gridLJ>
-2.846    

> <gridEL>
0.000     

> <totalE>
8.932     

> <LGFE>
-2.846  

> <LE>
-0.474  

> <SMILES>
NC1CCCC1

> <atom.dprop.GFE>
-0.89 -0.45 -0.45 -0.42 -0.27 -0.37 0 0 0 0 0 0 0 0 0 0 0

> <atom.prop.CLASS>
GEND PRPC PRPC PRPC PRPC PRPC NCLA NCLA NCLA NCLA NCLA NCLA NCLA NCLA NCLA NCLA NCLA

$$$$
