72_1
     RDKit          3D

 14 14  0  0  0  0  0  0  0  0999 V2000
  -24.0732    3.9406   21.3701 N   0  0  0  0  0  0  0  0  0  0  0  0
  -25.2152    3.7780   20.4888 C   0  0  0  0  0  0  0  0  0  0  0  0
  -26.3319    4.5218   21.2305 C   0  0  0  0  0  0  0  0  0  0  0  0
  -27.3898    5.1571   20.3747 C   0  0  0  0  0  0  0  0  0  0  0  0
  -26.3497    6.0131   21.0631 C   0  0  0  0  0  0  0  0  0  0  0  0
  -23.3302    3.3235   21.0724 H   0  0  0  0  0  0  0  0  0  0  0  0
  -24.3692    3.7020   22.3062 H   0  0  0  0  0  0  0  0  0  0  0  0
  -25.4669    2.7297   20.3867 H   0  0  0  0  0  0  0  0  0  0  0  0
  -25.0247    4.2668   19.5403 H   0  0  0  0  0  0  0  0  0  0  0  0
  -26.6166    4.1043   22.1883 H   0  0  0  0  0  0  0  0  0  0  0  0
  -28.3890    5.1844   20.7895 H   0  0  0  0  0  0  0  0  0  0  0  0
  -27.2949    5.0477   19.3024 H   0  0  0  0  0  0  0  0  0  0  0  0
  -25.5894    6.4524   20.4300 H   0  0  0  0  0  0  0  0  0  0  0  0
  -26.6852    6.5891   21.9157 H   0  0  0  0  0  0  0  0  0  0  0  0
  1  2  1  0
  1  6  1  0
  1  7  1  0
  2  3  1  0
  2  8  1  0
  2  9  1  0
  3  4  1  0
  3  5  1  0
  3 10  1  0
  4  5  1  0
  4 11  1  0
  4 12  1  0
  5 13  1  0
  5 14  1  0
M  END
> <intraLJ>
0.127     

> <intraEL>
1.664     

> <intraDihe>
2.197     

> <interLJ>
0.000     

> <interEJ>
0.000     

> <gridLJ>
-2.715    

> <gridEL>
0.000     

> <totalE>
1.272     

> <LGFE>
-2.715  

> <LE>
-0.543  

> <SMILES>
NCC1CC1

> <atom.dprop.GFE>
-1.4 -0.3 -0.3 -0.35 -0.39 0 0 0 0 0 0 0 0 0

> <atom.prop.CLASS>
GEND PRPC PRPC PRPC PRPC NCLA NCLA NCLA NCLA NCLA NCLA NCLA NCLA NCLA

$$$$
