81_2
     RDKit          3D

 19 19  0  0  1  0  0  0  0  0999 V2000
    4.0279   18.3176    5.3711 N   0  0  0  0  0  0  0  0  0  0  0  0
    2.6772   18.3861    4.7593 C   0  0  0  0  0  0  0  0  0  0  0  0
    2.7144   17.7739    3.3500 C   0  0  0  0  0  0  0  0  0  0  0  0
    3.5968   18.5211    2.3551 C   0  0  0  0  0  0  0  0  0  0  0  0
    2.9387   18.1836    1.0163 C   0  0  0  0  0  0  0  0  0  0  0  0
    1.5518   17.6531    1.3878 C   0  0  0  0  0  0  0  0  0  0  0  0
    1.4200   17.8748    2.7842 O   0  0  0  0  0  0  0  0  0  0  0  0
    4.0238   18.5838    6.3437 H   0  0  0  0  0  0  0  0  0  0  0  0
    4.6847   18.8734    4.8432 H   0  0  0  0  0  0  0  0  0  0  0  0
    4.3223   17.3485    5.2586 H   0  0  0  0  0  0  0  0  0  0  0  0
    1.9826   17.7903    5.3567 H   0  0  0  0  0  0  0  0  0  0  0  0
    2.3045   19.4123    4.7103 H   0  0  0  0  0  0  0  0  0  0  0  0
    3.0121   16.7240    3.3979 H   0  0  0  0  0  0  0  0  0  0  0  0
    3.5423   19.5984    2.5276 H   0  0  0  0  0  0  0  0  0  0  0  0
    4.6318   18.1761    2.3909 H   0  0  0  0  0  0  0  0  0  0  0  0
    3.5015   17.4086    0.4919 H   0  0  0  0  0  0  0  0  0  0  0  0
    2.8574   19.0735    0.3889 H   0  0  0  0  0  0  0  0  0  0  0  0
    1.4985   16.5838    1.1733 H   0  0  0  0  0  0  0  0  0  0  0  0
    0.7695   18.1765    0.8336 H   0  0  0  0  0  0  0  0  0  0  0  0
  1  2  1  0
  1  8  1  0
  1  9  1  0
  1 10  1  0
  2  3  1  0
  2 11  1  0
  2 12  1  0
  3  4  1  0
  3  7  1  0
  3 13  1  0
  4  5  1  0
  4 14  1  0
  4 15  1  0
  5  6  1  0
  5 16  1  0
  5 17  1  0
  6  7  1  0
  6 18  1  0
  6 19  1  0
M  CHG  1   1   1
M  END
> <intraLJ>
-0.745    

> <intraEL>
2.670     

> <intraDihe>
7.603     

> <interLJ>
0.000     

> <interEJ>
0.000     

> <gridLJ>
-2.922    

> <gridEL>
0.000     

> <totalE>
6.606     

> <LGFE>
-2.922  

> <LE>
-0.417  

> <SMILES>
[NH3+]CC1CCCO1

> <atom.dprop.GFE>
-1.7 0.024 -0.19 -0.14 -0.17 -0.2 -0.55 0 0 0 0 0 0 0 0 0 0 0 0

> <atom.prop.CLASS>
MAMN PRPC PRPC PRPC PRPC PRPC GENA NCLA NCLA NCLA NCLA NCLA NCLA NCLA NCLA NCLA NCLA NCLA NCLA

$$$$
