75
     RDKit          3D

 11 11  0  0  0  0  0  0  0  0999 V2000
  -23.4835    4.9686    6.7684 O   0  0  0  0  0  0  0  0  0  0  0  0
  -22.3453    4.8306    5.9337 S   0  0  0  0  0  0  0  0  0  0  0  0
  -21.0666    5.2307    6.3967 O   0  0  0  0  0  0  0  0  0  0  0  0
  -22.6052    5.4523    4.3400 C   0  0  0  0  0  0  0  0  0  0  0  0
  -22.2727    3.9592    3.8184 C   0  0  0  0  0  0  0  0  0  0  0  0
  -22.3125    3.3703    5.2740 N   0  0  0  0  0  0  0  0  0  0  0  0
  -21.8980    6.1495    3.9107 H   0  0  0  0  0  0  0  0  0  0  0  0
  -23.6072    5.7356    4.0440 H   0  0  0  0  0  0  0  0  0  0  0  0
  -21.2874    3.8908    3.3767 H   0  0  0  0  0  0  0  0  0  0  0  0
  -23.0428    3.5547    3.1759 H   0  0  0  0  0  0  0  0  0  0  0  0
  -23.1329    2.7838    5.4003 H   0  0  0  0  0  0  0  0  0  0  0  0
  1  2  2  0
  2  3  2  0
  2  4  1  0
  2  6  1  0
  4  5  1  0
  4  7  1  0
  4  8  1  0
  5  6  1  0
  5  9  1  0
  5 10  1  0
  6 11  1  0
M  END
> <intraLJ>
-0.439    

> <intraEL>
-3.883    

> <intraDihe>
14.792    

> <interLJ>
0.000     

> <interEJ>
0.000     

> <gridLJ>
-4.285    

> <gridEL>
0.000     

> <totalE>
6.184     

> <LGFE>
-4.285  

> <LE>
-0.714  

> <SMILES>
O=S1(=O)CCN1

> <atom.dprop.GFE>
-0.88 0 -1.9 -0.38 -0.51 -0.65 0 0 0 0 0

> <atom.prop.CLASS>
GENA NCLA GENA PRPC PRPC GEND NCLA NCLA NCLA NCLA NCLA

$$$$
