23_2
     RDKit          3D

 10 10  0  0  0  0  0  0  0  0999 V2000
  -28.2041   14.4100   16.1188 O   0  0  0  0  0  0  0  0  0  0  0  0
  -28.1402   14.3248   17.3687 C   0  0  0  0  0  0  0  0  0  0  0  0
  -27.2694   13.4371   17.9329 N   0  0  0  0  0  0  0  0  0  0  0  0
  -27.2040   13.3501   19.2368 C   0  0  0  0  0  0  0  0  0  0  0  0
  -28.0031   14.1427   20.0461 C   0  0  0  0  0  0  0  0  0  0  0  0
  -28.8757   15.0313   19.4370 C   0  0  0  0  0  0  0  0  0  0  0  0
  -28.9442   15.1222   18.1334 N   0  0  0  0  0  0  0  0  0  0  0  0
  -26.5245   12.6580   19.6595 H   0  0  0  0  0  0  0  0  0  0  0  0
  -27.9499   14.0711   21.0986 H   0  0  0  0  0  0  0  0  0  0  0  0
  -29.5046   15.6551   20.0159 H   0  0  0  0  0  0  0  0  0  0  0  0
  1  2  1  0
  2  3  2  0
  2  7  1  0
  3  4  1  0
  4  5  2  0
  4  8  1  0
  5  6  1  0
  5  9  1  0
  6  7  2  0
  6 10  1  0
M  CHG  1   1  -1
M  END
> <intraLJ>
17.983    

> <intraEL>
-7.943    

> <intraDihe>
0.000     

> <interLJ>
0.000     

> <interEJ>
0.000     

> <gridLJ>
-2.361    

> <gridEL>
0.000     

> <totalE>
7.679     

> <LGFE>
-2.361  

> <LE>
-0.337  

> <SMILES>
[O-]c1ncccn1

> <atom.dprop.GFE>
0 -0.19 -0.79 -0.24 -0.17 -0.17 -0.81 0 0 0

> <atom.prop.CLASS>
NCLA GEHC GENA BENC BENC BENC GENA NCLA NCLA NCLA

$$$$
