51_1
     RDKit          3D

 12 12  0  0  0  0  0  0  0  0999 V2000
    3.3876    7.3424  -28.0622 O   0  0  0  0  0  0  0  0  0  0  0  0
    3.6673    8.3630  -27.4585 C   0  0  0  0  0  0  0  0  0  0  0  0
    4.8370    9.2711  -27.6539 C   0  0  0  0  0  0  0  0  0  0  0  0
    4.8590   10.0188  -26.2996 C   0  0  0  0  0  0  0  0  0  0  0  0
    3.4582   10.0464  -25.8252 N   0  0  0  0  0  0  0  0  0  0  0  0
    2.9085    8.8391  -26.4757 N   0  0  0  0  0  0  0  0  0  0  0  0
    4.5997    9.9609  -28.4499 H   0  0  0  0  0  0  0  0  0  0  0  0
    5.7413    8.6990  -27.8025 H   0  0  0  0  0  0  0  0  0  0  0  0
    5.2679   11.0251  -26.4094 H   0  0  0  0  0  0  0  0  0  0  0  0
    5.4630    9.4557  -25.5854 H   0  0  0  0  0  0  0  0  0  0  0  0
    3.0181   10.8630  -26.2893 H   0  0  0  0  0  0  0  0  0  0  0  0
    2.0663    8.3283  -26.1586 H   0  0  0  0  0  0  0  0  0  0  0  0
  1  2  2  0
  2  3  1  0
  2  6  1  0
  3  4  1  0
  3  7  1  0
  3  8  1  0
  4  5  1  0
  4  9  1  0
  4 10  1  0
  5  6  1  0
  5 11  1  0
  6 12  1  0
M  END
> <intraLJ>
-0.445    

> <intraEL>
-0.094    

> <intraDihe>
6.248     

> <interLJ>
0.000     

> <interEJ>
0.000     

> <gridLJ>
-2.572    

> <gridEL>
0.000     

> <totalE>
3.137     

> <LGFE>
-2.572  

> <LE>
-0.429  

> <SMILES>
O=C1CCNN1

> <atom.dprop.GFE>
-1.3 -0.13 -0.17 -0.11 -0.47 -0.36 0 0 0 0 0 0

> <atom.prop.CLASS>
GENA GEHC PRPC PRPC GEND GEND NCLA NCLA NCLA NCLA NCLA NCLA

$$$$
