75
     RDKit          3D

 11 11  0  0  0  0  0  0  0  0999 V2000
   12.8521    4.6599    5.1168 O   0  0  0  0  0  0  0  0  0  0  0  0
   12.8152    5.9204    4.4678 S   0  0  0  0  0  0  0  0  0  0  0  0
   11.9397    6.1359    3.3739 O   0  0  0  0  0  0  0  0  0  0  0  0
   14.3913    6.5168    4.0749 C   0  0  0  0  0  0  0  0  0  0  0  0
   14.0231    7.7907    4.9988 C   0  0  0  0  0  0  0  0  0  0  0  0
   12.7237    7.1005    5.5485 N   0  0  0  0  0  0  0  0  0  0  0  0
   14.6063    6.8518    3.0689 H   0  0  0  0  0  0  0  0  0  0  0  0
   15.2596    6.0070    4.4725 H   0  0  0  0  0  0  0  0  0  0  0  0
   13.8006    8.6712    4.4106 H   0  0  0  0  0  0  0  0  0  0  0  0
   14.7593    7.9823    5.7674 H   0  0  0  0  0  0  0  0  0  0  0  0
   12.8396    6.8468    6.5259 H   0  0  0  0  0  0  0  0  0  0  0  0
  1  2  2  0
  2  3  2  0
  2  4  1  0
  2  6  1  0
  4  5  1  0
  4  7  1  0
  4  8  1  0
  5  6  1  0
  5  9  1  0
  5 10  1  0
  6 11  1  0
M  END
> <intraLJ>
-0.439    

> <intraEL>
-3.883    

> <intraDihe>
14.792    

> <interLJ>
0.000     

> <interEJ>
0.000     

> <gridLJ>
-2.303    

> <gridEL>
0.000     

> <totalE>
8.167     

> <LGFE>
-2.303  

> <LE>
-0.384  

> <SMILES>
O=S1(=O)CCN1

> <atom.dprop.GFE>
-0.71 0 -0.86 0.017 -0.098 -0.65 0 0 0 0 0

> <atom.prop.CLASS>
GENA NCLA GENA PRPC PRPC GEND NCLA NCLA NCLA NCLA NCLA

$$$$
