27_2
     RDKit          3D

 12 12  0  0  0  0  0  0  0  0999 V2000
   15.8918   20.3859  -24.4739 N   0  0  0  0  0  0  0  0  0  0  0  0
   16.7012   19.3542  -24.4438 C   0  0  0  0  0  0  0  0  0  0  0  0
   17.6699   19.1702  -23.5765 N   0  0  0  0  0  0  0  0  0  0  0  0
   18.3043   17.9739  -23.8608 C   0  0  0  0  0  0  0  0  0  0  0  0
   17.6763   17.4503  -24.9340 C   0  0  0  0  0  0  0  0  0  0  0  0
   16.6736   18.3402  -25.2780 N   0  0  0  0  0  0  0  0  0  0  0  0
   15.1597   20.4481  -25.1914 H   0  0  0  0  0  0  0  0  0  0  0  0
   15.9852   21.1364  -23.7800 H   0  0  0  0  0  0  0  0  0  0  0  0
   17.8885   19.8335  -22.8204 H   0  0  0  0  0  0  0  0  0  0  0  0
   19.1245   17.6018  -23.2967 H   0  0  0  0  0  0  0  0  0  0  0  0
   17.8574   16.5461  -25.4617 H   0  0  0  0  0  0  0  0  0  0  0  0
   15.9986   18.2589  -26.0499 H   0  0  0  0  0  0  0  0  0  0  0  0
  1  2  2  0
  1  7  1  0
  1  8  1  0
  2  3  1  0
  2  6  1  0
  3  4  1  0
  3  9  1  0
  4  5  2  0
  4 10  1  0
  5  6  1  0
  5 11  1  0
  6 12  1  0
M  CHG  1   1   1
M  END
> <intraLJ>
-0.384    

> <intraEL>
3.349     

> <intraDihe>
0.000     

> <interLJ>
0.000     

> <interEJ>
0.000     

> <gridLJ>
-2.980    

> <gridEL>
0.000     

> <totalE>
-0.014    

> <LGFE>
-2.980  

> <LE>
-0.497  

> <SMILES>
[NH2+]=c1[nH]cc[nH]1

> <atom.dprop.GFE>
-1.6 -1.3 0 -0.025 -0.041 0 0 0 0 0 0 0

> <atom.prop.CLASS>
MAMN MAMC NCLA GEHC GEHC NCLA NCLA NCLA NCLA NCLA NCLA NCLA

$$$$
