9_2
     RDKit          3D

 13 13  0  0  0  0  0  0  0  0999 V2000
   -6.8111    9.3733   -8.4923 O   0  0  0  0  0  0  0  0  0  0  0  0
   -6.5826   10.6200   -7.7356 C   0  0  0  0  0  0  0  0  0  0  0  0
   -6.7272   11.8765   -8.6423 C   0  0  0  0  0  0  0  0  0  0  0  0
   -5.3335   11.5985   -9.0815 N   0  0  0  0  0  0  0  0  0  0  0  0
   -5.0817   11.0265   -7.7315 C   0  0  0  0  0  0  0  0  0  0  0  0
   -7.3223    8.7276   -7.9662 H   0  0  0  0  0  0  0  0  0  0  0  0
   -7.1004   10.6407   -6.7865 H   0  0  0  0  0  0  0  0  0  0  0  0
   -6.8084   12.7952   -8.0756 H   0  0  0  0  0  0  0  0  0  0  0  0
   -7.4658   11.7718   -9.4252 H   0  0  0  0  0  0  0  0  0  0  0  0
   -4.7571   12.4607   -9.3186 H   0  0  0  0  0  0  0  0  0  0  0  0
   -5.3203   10.8306   -9.8240 H   0  0  0  0  0  0  0  0  0  0  0  0
   -4.3983   10.1872   -7.7274 H   0  0  0  0  0  0  0  0  0  0  0  0
   -4.8543   11.7854   -6.9952 H   0  0  0  0  0  0  0  0  0  0  0  0
  1  2  1  0
  1  6  1  0
  2  3  1  0
  2  5  1  0
  2  7  1  0
  3  4  1  0
  3  8  1  0
  3  9  1  0
  4  5  1  0
  4 10  1  0
  4 11  1  0
  5 12  1  0
  5 13  1  0
M  CHG  1   4   1
M  END
> <intraLJ>
3.656     

> <intraEL>
5.220     

> <intraDihe>
6.360     

> <interLJ>
0.000     

> <interEJ>
0.000     

> <gridLJ>
-3.831    

> <gridEL>
0.000     

> <totalE>
11.405    

> <LGFE>
-3.831  

> <LE>
-0.766  

> <SMILES>
OC1C[NH2+]C1

> <atom.dprop.GFE>
-0.97 -0.55 -0.39 -1.4 -0.49 0 0 0 0 0 0 0 0

> <atom.prop.CLASS>
MEOO PRPC PRPC MAMN PRPC NCLA NCLA NCLA NCLA NCLA NCLA NCLA NCLA

$$$$
