41
     RDKit          3D

  8  8  0  0  0  0  0  0  0  0999 V2000
   24.4010    8.0882   -8.8758 C   0  0  0  0  0  0  0  0  0  0  0  0
   23.0637    8.0554   -9.0157 C   0  0  0  0  0  0  0  0  0  0  0  0
   22.6341    7.3246   -7.9878 N   0  0  0  0  0  0  0  0  0  0  0  0
   23.6669    6.9194   -7.2371 N   0  0  0  0  0  0  0  0  0  0  0  0
   24.7652    7.3896   -7.7829 N   0  0  0  0  0  0  0  0  0  0  0  0
   25.0865    8.5830   -9.5160 H   0  0  0  0  0  0  0  0  0  0  0  0
   22.4175    8.4795   -9.7385 H   0  0  0  0  0  0  0  0  0  0  0  0
   21.6496    7.0842   -7.7696 H   0  0  0  0  0  0  0  0  0  0  0  0
  1  2  2  0
  1  5  1  0
  1  6  1  0
  2  3  1  0
  2  7  1  0
  3  4  1  0
  3  8  1  0
  4  5  2  0
M  END
> <intraLJ>
-0.290    

> <intraEL>
-0.628    

> <intraDihe>
0.000     

> <interLJ>
0.000     

> <interEJ>
0.000     

> <gridLJ>
-4.415    

> <gridEL>
0.000     

> <totalE>
-5.333    

> <LGFE>
-4.415  

> <LE>
-0.883  

> <SMILES>
c1c[nH]nn1

> <atom.dprop.GFE>
-0.32 -0.32 -1.3 -1.2 -1.3 0 0 0

> <atom.prop.CLASS>
GEHC GEHC GEND GENA GENA NCLA NCLA NCLA

$$$$
