22
     RDKit          3D

 12 12  0  0  0  0  0  0  0  0999 V2000
   17.1810    5.1722   -5.2347 O   0  0  0  0  0  0  0  0  0  0  0  0
   18.1749    6.1857   -5.3518 S   0  0  0  0  0  0  0  0  0  0  0  0
   18.1333    7.0973   -6.4454 O   0  0  0  0  0  0  0  0  0  0  0  0
   18.4232    7.0144   -3.8404 C   0  0  0  0  0  0  0  0  0  0  0  0
   19.9006    6.3552   -3.7228 C   0  0  0  0  0  0  0  0  0  0  0  0
   19.7746    5.5399   -5.1199 C   0  0  0  0  0  0  0  0  0  0  0  0
   17.8533    6.7083   -2.9737 H   0  0  0  0  0  0  0  0  0  0  0  0
   18.5379    8.0893   -3.8426 H   0  0  0  0  0  0  0  0  0  0  0  0
   19.9901    5.6960   -2.8700 H   0  0  0  0  0  0  0  0  0  0  0  0
   20.6852    7.0991   -3.7517 H   0  0  0  0  0  0  0  0  0  0  0  0
   20.5749    5.8688   -5.7707 H   0  0  0  0  0  0  0  0  0  0  0  0
   19.8909    4.4866   -4.9020 H   0  0  0  0  0  0  0  0  0  0  0  0
  1  2  2  0
  2  3  2  0
  2  4  1  0
  2  6  1  0
  4  5  1  0
  4  7  1  0
  4  8  1  0
  5  6  1  0
  5  9  1  0
  5 10  1  0
  6 11  1  0
  6 12  1  0
M  END
> <intraLJ>
-0.830    

> <intraEL>
0.015     

> <intraDihe>
20.344    

> <interLJ>
0.000     

> <interEJ>
0.000     

> <gridLJ>
-3.050    

> <gridEL>
0.000     

> <totalE>
16.478    

> <LGFE>
-3.050  

> <LE>
-0.508  

> <SMILES>
O=S1(=O)CCC1

> <atom.dprop.GFE>
-0.77 0 -0.96 -0.51 -0.42 -0.39 0 0 0 0 0 0

> <atom.prop.CLASS>
GENA NCLA GENA PRPC PRPC PRPC NCLA NCLA NCLA NCLA NCLA NCLA

$$$$
