51_2
     RDKit          3D

 12 12  0  0  0  0  0  0  0  0999 V2000
  -20.0703   -5.8116   23.3646 O   0  0  0  0  0  0  0  0  0  0  0  0
  -19.5868   -5.7489   24.6096 C   0  0  0  0  0  0  0  0  0  0  0  0
  -19.4650   -6.9251   25.5189 C   0  0  0  0  0  0  0  0  0  0  0  0
  -19.1774   -6.1618   26.8248 C   0  0  0  0  0  0  0  0  0  0  0  0
  -18.7501   -4.8415   26.3381 N   0  0  0  0  0  0  0  0  0  0  0  0
  -19.2183   -4.6378   25.0547 N   0  0  0  0  0  0  0  0  0  0  0  0
  -19.9858   -4.8808   23.0847 H   0  0  0  0  0  0  0  0  0  0  0  0
  -18.6044   -7.5048   25.2177 H   0  0  0  0  0  0  0  0  0  0  0  0
  -20.3974   -7.4657   25.5735 H   0  0  0  0  0  0  0  0  0  0  0  0
  -18.3927   -6.6473   27.4084 H   0  0  0  0  0  0  0  0  0  0  0  0
  -20.0927   -6.0601   27.4109 H   0  0  0  0  0  0  0  0  0  0  0  0
  -18.8369   -4.0360   26.9864 H   0  0  0  0  0  0  0  0  0  0  0  0
  1  2  1  0
  1  7  1  0
  2  3  1  0
  2  6  2  0
  3  4  1  0
  3  8  1  0
  3  9  1  0
  4  5  1  0
  4 10  1  0
  4 11  1  0
  5  6  1  0
  5 12  1  0
M  END
> <intraLJ>
-0.691    

> <intraEL>
-4.206    

> <intraDihe>
21.287    

> <interLJ>
0.000     

> <interEJ>
0.000     

> <gridLJ>
-4.446    

> <gridEL>
0.000     

> <totalE>
11.944    

> <LGFE>
-4.446  

> <LE>
-0.741  

> <SMILES>
OC1=NNCC1

> <atom.dprop.GFE>
-1.1 -0.18 -0.33 -0.32 -1 -1.5 0 0 0 0 0 0

> <atom.prop.CLASS>
MEOO GEHC PRPC PRPC GEND GENA NCLA NCLA NCLA NCLA NCLA NCLA

$$$$
