25
     RDKit          3D

 12 12  0  0  0  0  0  0  0  0999 V2000
  -25.4198  -18.2369    7.0184 O   0  0  0  0  0  0  0  0  0  0  0  0
  -25.7006  -17.4341    7.8707 C   0  0  0  0  0  0  0  0  0  0  0  0
  -26.0423  -15.9754    7.6978 C   0  0  0  0  0  0  0  0  0  0  0  0
  -26.3111  -15.5116    9.1580 C   0  0  0  0  0  0  0  0  0  0  0  0
  -26.0738  -16.7685    9.9558 C   0  0  0  0  0  0  0  0  0  0  0  0
  -26.1531  -16.9187   11.1484 O   0  0  0  0  0  0  0  0  0  0  0  0
  -25.7394  -17.7938    9.1603 N   0  0  0  0  0  0  0  0  0  0  0  0
  -26.9378  -15.8944    7.0985 H   0  0  0  0  0  0  0  0  0  0  0  0
  -25.1835  -15.4638    7.2859 H   0  0  0  0  0  0  0  0  0  0  0  0
  -27.3418  -15.2102    9.2809 H   0  0  0  0  0  0  0  0  0  0  0  0
  -25.5908  -14.7640    9.4619 H   0  0  0  0  0  0  0  0  0  0  0  0
  -25.5389  -18.7398    9.4985 H   0  0  0  0  0  0  0  0  0  0  0  0
  1  2  2  0
  2  3  1  0
  2  7  1  0
  3  4  1  0
  3  8  1  0
  3  9  1  0
  4  5  1  0
  4 10  1  0
  4 11  1  0
  5  6  2  0
  5  7  1  0
  7 12  1  0
M  END
> <intraLJ>
-0.774    

> <intraEL>
-6.724    

> <intraDihe>
1.508     

> <interLJ>
0.000     

> <interEJ>
0.000     

> <gridLJ>
-2.870    

> <gridEL>
0.000     

> <totalE>
-8.860    

> <LGFE>
-2.870  

> <LE>
-0.410  

> <SMILES>
O=C1CCC(=O)N1

> <atom.dprop.GFE>
-0.6 -0.11 -0.33 -0.17 -0.2 -0.88 -0.59 0 0 0 0 0

> <atom.prop.CLASS>
GENA GEHC PRPC PRPC GEHC GENA GEND NCLA NCLA NCLA NCLA NCLA

$$$$
