14_2
     RDKit          3D

 19 19  0  0  1  0  0  0  0  0999 V2000
  -26.8918  -15.9014    8.3063 C   0  0  0  0  0  0  0  0  0  0  0  0
  -26.1040  -16.7460    7.3870 N   0  0  0  0  0  0  0  0  0  0  0  0
  -25.2101  -17.6399    8.1341 C   0  0  0  0  0  0  0  0  0  0  0  0
  -24.9358  -18.7861    7.1409 C   0  0  0  0  0  0  0  0  0  0  0  0
  -25.9231  -18.5524    5.9939 C   0  0  0  0  0  0  0  0  0  0  0  0
  -25.2610  -17.7959    4.9909 O   0  0  0  0  0  0  0  0  0  0  0  0
  -26.9819  -17.6462    6.6326 C   0  0  0  0  0  0  0  0  0  0  0  0
  -26.2060  -15.2700    8.8590 H   0  0  0  0  0  0  0  0  0  0  0  0
  -27.4482  -16.5437    8.9795 H   0  0  0  0  0  0  0  0  0  0  0  0
  -27.5667  -15.2949    7.7123 H   0  0  0  0  0  0  0  0  0  0  0  0
  -25.5621  -16.2126    6.7058 H   0  0  0  0  0  0  0  0  0  0  0  0
  -24.2814  -17.1402    8.3889 H   0  0  0  0  0  0  0  0  0  0  0  0
  -25.7233  -18.0477    8.9982 H   0  0  0  0  0  0  0  0  0  0  0  0
  -25.1290  -19.7452    7.6244 H   0  0  0  0  0  0  0  0  0  0  0  0
  -23.9051  -18.7517    6.7875 H   0  0  0  0  0  0  0  0  0  0  0  0
  -26.3203  -19.4866    5.5887 H   0  0  0  0  0  0  0  0  0  0  0  0
  -24.7443  -18.3798    4.4224 H   0  0  0  0  0  0  0  0  0  0  0  0
  -27.6029  -18.2321    7.2999 H   0  0  0  0  0  0  0  0  0  0  0  0
  -27.5278  -17.1186    5.8584 H   0  0  0  0  0  0  0  0  0  0  0  0
  1  2  1  0
  1  8  1  0
  1  9  1  0
  1 10  1  0
  2  3  1  0
  2  7  1  0
  2 11  1  0
  3  4  1  0
  3 12  1  0
  3 13  1  0
  4  5  1  0
  4 14  1  0
  4 15  1  0
  5  6  1  0
  5  7  1  0
  5 16  1  0
  6 17  1  0
  7 18  1  0
  7 19  1  0
M  CHG  1   2   1
M  END
> <intraLJ>
3.793     

> <intraEL>
3.185     

> <intraDihe>
12.263    

> <interLJ>
0.000     

> <interEJ>
0.000     

> <gridLJ>
-2.870    

> <gridEL>
0.000     

> <totalE>
16.371    

> <LGFE>
-2.870  

> <LE>
-0.410  

> <SMILES>
C[NH+]1CCC(O)C1

> <atom.dprop.GFE>
-0.28 -0.7 -0.39 -0.4 -0.41 -0.31 -0.38 0 0 0 0 0 0 0 0 0 0 0 0

> <atom.prop.CLASS>
PRPC MAMN PRPC PRPC PRPC MEOO PRPC NCLA NCLA NCLA NCLA NCLA NCLA NCLA NCLA NCLA NCLA NCLA NCLA

$$$$
