27_1
     RDKit          3D

 11 11  0  0  0  0  0  0  0  0999 V2000
   -3.4694   15.0549    0.3100 N   0  0  0  0  0  0  0  0  0  0  0  0
   -2.8481   14.6712   -0.8532 C   0  0  0  0  0  0  0  0  0  0  0  0
   -2.1181   15.4497   -1.5870 N   0  0  0  0  0  0  0  0  0  0  0  0
   -1.7162   14.6501   -2.6223 C   0  0  0  0  0  0  0  0  0  0  0  0
   -2.2140   13.3977   -2.4931 C   0  0  0  0  0  0  0  0  0  0  0  0
   -2.9441   13.4181   -1.3551 N   0  0  0  0  0  0  0  0  0  0  0  0
   -3.5114   14.3349    1.0398 H   0  0  0  0  0  0  0  0  0  0  0  0
   -3.0970   15.9590    0.6334 H   0  0  0  0  0  0  0  0  0  0  0  0
   -1.0958   14.9811   -3.4172 H   0  0  0  0  0  0  0  0  0  0  0  0
   -2.1071   12.5409   -3.1066 H   0  0  0  0  0  0  0  0  0  0  0  0
   -3.4948   12.6558   -0.9369 H   0  0  0  0  0  0  0  0  0  0  0  0
  1  2  1  0
  1  7  1  0
  1  8  1  0
  2  3  2  0
  2  6  1  0
  3  4  1  0
  4  5  2  0
  4  9  1  0
  5  6  1  0
  5 10  1  0
  6 11  1  0
M  END
> <intraLJ>
-0.193    

> <intraEL>
-10.326   

> <intraDihe>
2.842     

> <interLJ>
0.000     

> <interEJ>
0.000     

> <gridLJ>
-3.316    

> <gridEL>
0.000     

> <totalE>
-10.992   

> <LGFE>
-3.316  

> <LE>
-0.553  

> <SMILES>
Nc1ncc[nH]1

> <atom.dprop.GFE>
-0.56 -0.33 -1.1 -0.16 -0.22 -0.94 0 0 0 0 0

> <atom.prop.CLASS>
GEND GEHC GENA GEHC GEHC GEND NCLA NCLA NCLA NCLA NCLA

$$$$
