64_1
     RDKit          3D

 14 14  0  0  0  0  0  0  0  0999 V2000
   19.9210    6.4128   -7.6692 N   0  0  0  0  0  0  0  0  0  0  0  0
   19.2285    7.6120   -7.2310 C   0  0  0  0  0  0  0  0  0  0  0  0
   18.2299    7.0918   -6.2237 C   0  0  0  0  0  0  0  0  0  0  0  0
   16.9281    6.6644   -6.5492 C   0  0  0  0  0  0  0  0  0  0  0  0
   16.2201    6.2386   -5.4618 C   0  0  0  0  0  0  0  0  0  0  0  0
   17.1421    6.3534   -4.0060 S   0  0  0  0  0  0  0  0  0  0  0  0
   18.4905    6.9802   -4.8856 C   0  0  0  0  0  0  0  0  0  0  0  0
   20.3062    6.5652   -8.5903 H   0  0  0  0  0  0  0  0  0  0  0  0
   19.2394    5.6653   -7.6917 H   0  0  0  0  0  0  0  0  0  0  0  0
   18.6953    8.0629   -8.0584 H   0  0  0  0  0  0  0  0  0  0  0  0
   19.9210    8.2886   -6.7462 H   0  0  0  0  0  0  0  0  0  0  0  0
   16.5324    6.6691   -7.5318 H   0  0  0  0  0  0  0  0  0  0  0  0
   15.2261    5.8721   -5.4446 H   0  0  0  0  0  0  0  0  0  0  0  0
   19.3944    7.2262   -4.3901 H   0  0  0  0  0  0  0  0  0  0  0  0
  1  2  1  0
  1  8  1  0
  1  9  1  0
  2  3  1  0
  2 10  1  0
  2 11  1  0
  3  4  1  0
  3  7  2  0
  4  5  2  0
  4 12  1  0
  5  6  1  0
  5 13  1  0
  6  7  1  0
  7 14  1  0
M  END
> <intraLJ>
1.241     

> <intraEL>
0.724     

> <intraDihe>
3.774     

> <interLJ>
0.000     

> <interEJ>
0.000     

> <gridLJ>
-2.876    

> <gridEL>
0.000     

> <totalE>
2.863     

> <LGFE>
-2.876  

> <LE>
-0.411  

> <SMILES>
NCc1ccsc1

> <atom.dprop.GFE>
-0.99 -0.42 -0.22 -0.17 -0.3 -0.53 -0.24 0 0 0 0 0 0 0

> <atom.prop.CLASS>
GEND PRPC GEHC GEHC GEHC PRPC GEHC NCLA NCLA NCLA NCLA NCLA NCLA NCLA

$$$$
