68_1
     RDKit          3D

 17 16  0  0  1  0  0  0  0  0999 V2000
    9.4193  -14.0186  -34.4716 C   0  0  0  0  0  0  0  0  0  0  0  0
    8.0738  -13.9871  -33.7566 C   0  0  0  0  0  0  0  0  0  0  0  0
    7.1073  -13.3032  -34.6266 N   0  0  0  0  0  0  0  0  0  0  0  0
    8.2067  -13.2820  -32.4034 C   0  0  0  0  0  0  0  0  0  0  0  0
    8.7510  -11.8712  -32.5519 C   0  0  0  0  0  0  0  0  0  0  0  0
    9.9379  -11.6325  -32.4163 O   0  0  0  0  0  0  0  0  0  0  0  0
    7.9147  -10.8875  -32.8240 N   0  0  0  0  0  0  0  0  0  0  0  0
   10.1469  -14.5665  -33.8714 H   0  0  0  0  0  0  0  0  0  0  0  0
    9.7799  -13.0042  -34.6448 H   0  0  0  0  0  0  0  0  0  0  0  0
    9.3041  -14.5234  -35.4305 H   0  0  0  0  0  0  0  0  0  0  0  0
    7.7451  -15.0169  -33.5863 H   0  0  0  0  0  0  0  0  0  0  0  0
    7.4104  -12.3625  -34.8299 H   0  0  0  0  0  0  0  0  0  0  0  0
    6.1885  -13.3067  -34.2012 H   0  0  0  0  0  0  0  0  0  0  0  0
    8.8513  -13.8598  -31.7432 H   0  0  0  0  0  0  0  0  0  0  0  0
    7.2227  -13.2049  -31.9431 H   0  0  0  0  0  0  0  0  0  0  0  0
    8.3170   -9.9696  -32.9175 H   0  0  0  0  0  0  0  0  0  0  0  0
    6.9334  -11.0622  -32.9437 H   0  0  0  0  0  0  0  0  0  0  0  0
  1  2  1  0
  1  8  1  0
  1  9  1  0
  1 10  1  0
  2  3  1  0
  2  4  1  0
  2 11  1  0
  3 12  1  0
  3 13  1  0
  4  5  1  0
  4 14  1  0
  4 15  1  0
  5  6  2  0
  5  7  1  0
  7 16  1  0
  7 17  1  0
M  END
> <intraLJ>
3.521     

> <intraEL>
-12.193   

> <intraDihe>
3.120     

> <interLJ>
0.000     

> <interEJ>
0.000     

> <gridLJ>
-2.128    

> <gridEL>
0.000     

> <totalE>
-7.680    

> <LGFE>
-2.128  

> <LE>
-0.304  

> <SMILES>
CC(N)CC(N)=O

> <atom.dprop.GFE>
-0.2 -0.24 -0.52 -0.15 0 -0.56 -0.46 0 0 0 0 0 0 0 0 0 0

> <atom.prop.CLASS>
PRPC PRPC GEND PRPC NCLA GENA GEND NCLA NCLA NCLA NCLA NCLA NCLA NCLA NCLA NCLA NCLA

$$$$
