51_2
     RDKit          3D

 12 12  0  0  0  0  0  0  0  0999 V2000
   17.2568   -4.8763  -13.9262 O   0  0  0  0  0  0  0  0  0  0  0  0
   18.2729   -4.1888  -13.3946 C   0  0  0  0  0  0  0  0  0  0  0  0
   19.3349   -4.7944  -12.5399 C   0  0  0  0  0  0  0  0  0  0  0  0
   19.9611   -3.4898  -12.0138 C   0  0  0  0  0  0  0  0  0  0  0  0
   19.4764   -2.4894  -12.9765 N   0  0  0  0  0  0  0  0  0  0  0  0
   18.3436   -2.9577  -13.6131 N   0  0  0  0  0  0  0  0  0  0  0  0
   16.7915   -4.1723  -14.4159 H   0  0  0  0  0  0  0  0  0  0  0  0
   20.0299   -5.3219  -13.1772 H   0  0  0  0  0  0  0  0  0  0  0  0
   18.8996   -5.3748  -11.7411 H   0  0  0  0  0  0  0  0  0  0  0  0
   21.0515   -3.5433  -12.0058 H   0  0  0  0  0  0  0  0  0  0  0  0
   19.5747   -3.2612  -11.0187 H   0  0  0  0  0  0  0  0  0  0  0  0
   19.4487   -1.4982  -12.6709 H   0  0  0  0  0  0  0  0  0  0  0  0
  1  2  1  0
  1  7  1  0
  2  3  1  0
  2  6  2  0
  3  4  1  0
  3  8  1  0
  3  9  1  0
  4  5  1  0
  4 10  1  0
  4 11  1  0
  5  6  1  0
  5 12  1  0
M  END
> <intraLJ>
-0.691    

> <intraEL>
-4.206    

> <intraDihe>
21.287    

> <interLJ>
0.000     

> <interEJ>
0.000     

> <gridLJ>
-2.397    

> <gridEL>
0.000     

> <totalE>
13.993    

> <LGFE>
-2.397  

> <LE>
-0.399  

> <SMILES>
OC1=NNCC1

> <atom.dprop.GFE>
-0.047 -0.081 -0.32 -0.36 -0.84 -0.74 0 0 0 0 0 0

> <atom.prop.CLASS>
MEOO GEHC PRPC PRPC GEND GENA NCLA NCLA NCLA NCLA NCLA NCLA

$$$$
