55
     RDKit          3D

  7  7  0  0  0  0  0  0  0  0999 V2000
  -15.2171    8.6472  -15.5591 C   0  0  0  0  0  0  0  0  0  0  0  0
  -14.6842    9.7457  -15.1806 N   0  0  0  0  0  0  0  0  0  0  0  0
  -15.2208   10.0149  -13.9475 N   0  0  0  0  0  0  0  0  0  0  0  0
  -16.0256    9.0520  -13.7016 C   0  0  0  0  0  0  0  0  0  0  0  0
  -16.0559    8.1805  -14.6737 O   0  0  0  0  0  0  0  0  0  0  0  0
  -15.0511    8.1188  -16.4644 H   0  0  0  0  0  0  0  0  0  0  0  0
  -16.6274    8.9080  -12.8402 H   0  0  0  0  0  0  0  0  0  0  0  0
  1  2  2  0
  1  5  1  0
  1  6  1  0
  2  3  1  0
  3  4  2  0
  4  5  1  0
  4  7  1  0
M  END
> <intraLJ>
-0.193    

> <intraEL>
-0.061    

> <intraDihe>
0.000     

> <interLJ>
0.000     

> <interEJ>
0.000     

> <gridLJ>
-3.275    

> <gridEL>
0.000     

> <totalE>
-3.528    

> <LGFE>
-3.275  

> <LE>
-0.655  

> <SMILES>
c1nnco1

> <atom.dprop.GFE>
-0.26 -0.87 -0.88 -0.31 -0.96 0 0

> <atom.prop.CLASS>
GEHC GENA GENA GEHC GENA NCLA NCLA

$$$$
