11_3
     RDKit          3D

 11 11  0  0  0  0  0  0  0  0999 V2000
   23.4986   11.2493  -17.3542 O   0  0  0  0  0  0  0  0  0  0  0  0
   22.3490   11.8697  -17.6003 C   0  0  0  0  0  0  0  0  0  0  0  0
   21.1283   11.1539  -18.0616 C   0  0  0  0  0  0  0  0  0  0  0  0
   20.1911   12.3661  -18.1524 C   0  0  0  0  0  0  0  0  0  0  0  0
   21.0287   13.5003  -17.7468 O   0  0  0  0  0  0  0  0  0  0  0  0
   22.2907   13.1037  -17.4358 N   0  0  0  0  0  0  0  0  0  0  0  0
   24.0713   11.9908  -17.0780 H   0  0  0  0  0  0  0  0  0  0  0  0
   20.8017   10.4625  -17.2999 H   0  0  0  0  0  0  0  0  0  0  0  0
   21.3066   10.7220  -19.0353 H   0  0  0  0  0  0  0  0  0  0  0  0
   19.3506   12.2607  -17.4662 H   0  0  0  0  0  0  0  0  0  0  0  0
   19.8395   12.5109  -19.1745 H   0  0  0  0  0  0  0  0  0  0  0  0
  1  2  1  0
  1  7  1  0
  2  3  1  0
  2  6  2  0
  3  4  1  0
  3  8  1  0
  3  9  1  0
  4  5  1  0
  4 10  1  0
  4 11  1  0
  5  6  1  0
M  END
> <intraLJ>
-0.718    

> <intraEL>
-4.916    

> <intraDihe>
22.322    

> <interLJ>
0.000     

> <interEJ>
0.000     

> <gridLJ>
-2.546    

> <gridEL>
0.000     

> <totalE>
14.142    

> <LGFE>
-2.546  

> <LE>
-0.424  

> <SMILES>
OC1=NOCC1

> <atom.dprop.GFE>
-0.49 -0.2 -0.37 -0.32 -0.56 -0.61 0 0 0 0 0

> <atom.prop.CLASS>
MEOO GEHC PRPC PRPC GENA GENA NCLA NCLA NCLA NCLA NCLA

$$$$
