32
     RDKit          3D

 17 16  0  0  0  0  0  0  0  0999 V2000
   15.5651   14.2226  -35.4029 C   0  0  0  0  0  0  0  0  0  0  0  0
   14.9310   15.6090  -35.3198 C   0  0  0  0  0  0  0  0  0  0  0  0
   14.9409   16.1262  -33.8824 C   0  0  0  0  0  0  0  0  0  0  0  0
   13.5417   15.4419  -35.6989 N   0  0  0  0  0  0  0  0  0  0  0  0
   12.9445   16.0311  -36.7517 C   0  0  0  0  0  0  0  0  0  0  0  0
   13.5936   16.5415  -37.6410 O   0  0  0  0  0  0  0  0  0  0  0  0
   11.6109   16.0495  -36.7781 N   0  0  0  0  0  0  0  0  0  0  0  0
   16.6117   14.2797  -35.1055 H   0  0  0  0  0  0  0  0  0  0  0  0
   15.5086   13.8575  -36.4292 H   0  0  0  0  0  0  0  0  0  0  0  0
   15.0448   13.5255  -34.7460 H   0  0  0  0  0  0  0  0  0  0  0  0
   15.4837   16.2954  -35.9632 H   0  0  0  0  0  0  0  0  0  0  0  0
   14.4046   15.4397  -33.2272 H   0  0  0  0  0  0  0  0  0  0  0  0
   14.4597   17.1037  -33.8432 H   0  0  0  0  0  0  0  0  0  0  0  0
   15.9685   16.2252  -33.5346 H   0  0  0  0  0  0  0  0  0  0  0  0
   12.8839   15.2409  -34.9377 H   0  0  0  0  0  0  0  0  0  0  0  0
   11.2018   16.6771  -37.4788 H   0  0  0  0  0  0  0  0  0  0  0  0
   11.1254   15.9008  -35.8925 H   0  0  0  0  0  0  0  0  0  0  0  0
  1  2  1  0
  1  8  1  0
  1  9  1  0
  1 10  1  0
  2  3  1  0
  2  4  1  0
  2 11  1  0
  3 12  1  0
  3 13  1  0
  3 14  1  0
  4  5  1  0
  4 15  1  0
  5  6  2  0
  5  7  1  0
  7 16  1  0
  7 17  1  0
M  END
> <intraLJ>
-0.661    

> <intraEL>
-9.457    

> <intraDihe>
5.473     

> <interLJ>
0.000     

> <interEJ>
0.000     

> <gridLJ>
-2.138    

> <gridEL>
0.000     

> <totalE>
-6.783    

> <LGFE>
-2.138  

> <LE>
-0.305  

> <SMILES>
CC(C)NC(N)=O

> <atom.dprop.GFE>
-0.33 -0.38 -0.42 -0.35 0 -0.43 -0.24 0 0 0 0 0 0 0 0 0 0

> <atom.prop.CLASS>
PRPC PRPC PRPC GEND NCLA GENA GEND NCLA NCLA NCLA NCLA NCLA NCLA NCLA NCLA NCLA NCLA

$$$$
