77
     RDKit          3D

 12 12  0  0  0  0  0  0  0  0999 V2000
   11.6465    7.0577  -44.5122 N   0  0  0  0  0  0  0  0  0  0  0  0
   11.4745    7.4782  -43.1804 C   0  0  0  0  0  0  0  0  0  0  0  0
   10.7019    8.5988  -42.8785 C   0  0  0  0  0  0  0  0  0  0  0  0
   10.5665    8.9897  -41.6190 N   0  0  0  0  0  0  0  0  0  0  0  0
   11.1701    8.2951  -40.6508 C   0  0  0  0  0  0  0  0  0  0  0  0
   11.9140    7.2105  -40.8820 N   0  0  0  0  0  0  0  0  0  0  0  0
   12.0740    6.7879  -42.1282 C   0  0  0  0  0  0  0  0  0  0  0  0
   12.4763    6.4705  -44.6892 H   0  0  0  0  0  0  0  0  0  0  0  0
   11.4840    7.7793  -45.2317 H   0  0  0  0  0  0  0  0  0  0  0  0
   10.2169    9.1471  -43.6444 H   0  0  0  0  0  0  0  0  0  0  0  0
   11.0518    8.6218  -39.6479 H   0  0  0  0  0  0  0  0  0  0  0  0
   12.6593    5.9233  -42.3092 H   0  0  0  0  0  0  0  0  0  0  0  0
  1  2  1  0
  1  8  1  0
  1  9  1  0
  2  3  2  0
  2  7  1  0
  3  4  1  0
  3 10  1  0
  4  5  2  0
  5  6  1  0
  5 11  1  0
  6  7  2  0
  7 12  1  0
M  END
> <intraLJ>
18.269    

> <intraEL>
2.751     

> <intraDihe>
1.494     

> <interLJ>
0.000     

> <interEJ>
0.000     

> <gridLJ>
-2.672    

> <gridEL>
0.000     

> <totalE>
19.842    

> <LGFE>
-2.672  

> <LE>
-0.382  

> <SMILES>
Nc1cncnc1

> <atom.dprop.GFE>
-0.29 -0.088 -0.016 -1.2 -0.068 -0.93 -0.11 0 0 0 0 0

> <atom.prop.CLASS>
GEND BENC BENC GENA GEHC GENA BENC NCLA NCLA NCLA NCLA NCLA

$$$$
