61_2
     RDKit          3D

 17 17  0  0  0  0  0  0  0  0999 V2000
  -36.0962   -1.5210   10.7440 C   0  0  0  0  0  0  0  0  0  0  0  0
  -35.0908   -0.9591    9.7156 C   0  0  0  0  0  0  0  0  0  0  0  0
  -33.8860   -1.8332    9.5788 N   0  0  0  0  0  0  0  0  0  0  0  0
  -33.2368   -2.0225   10.9131 C   0  0  0  0  0  0  0  0  0  0  0  0
  -34.2209   -2.5958   11.9554 C   0  0  0  0  0  0  0  0  0  0  0  0
  -35.4477   -1.7626   12.0602 N   0  0  0  0  0  0  0  0  0  0  0  0
  -36.5124   -2.4555   10.3601 H   0  0  0  0  0  0  0  0  0  0  0  0
  -36.9170   -0.8098   10.8654 H   0  0  0  0  0  0  0  0  0  0  0  0
  -34.7873    0.0327   10.0624 H   0  0  0  0  0  0  0  0  0  0  0  0
  -35.5954   -0.8434    8.7524 H   0  0  0  0  0  0  0  0  0  0  0  0
  -33.2298   -1.4216    8.9277 H   0  0  0  0  0  0  0  0  0  0  0  0
  -34.1776   -2.7355    9.2294 H   0  0  0  0  0  0  0  0  0  0  0  0
  -32.8852   -1.0588   11.2893 H   0  0  0  0  0  0  0  0  0  0  0  0
  -32.3766   -2.6915   10.8321 H   0  0  0  0  0  0  0  0  0  0  0  0
  -33.7236   -2.6383   12.9279 H   0  0  0  0  0  0  0  0  0  0  0  0
  -34.4906   -3.6145   11.6671 H   0  0  0  0  0  0  0  0  0  0  0  0
  -36.1060   -2.1438   12.7395 H   0  0  0  0  0  0  0  0  0  0  0  0
  1  2  1  0
  1  6  1  0
  1  7  1  0
  1  8  1  0
  2  3  1  0
  2  9  1  0
  2 10  1  0
  3  4  1  0
  3 11  1  0
  3 12  1  0
  4  5  1  0
  4 13  1  0
  4 14  1  0
  5  6  1  0
  5 15  1  0
  5 16  1  0
  6 17  1  0
M  CHG  1   3   1
M  END
> <intraLJ>
1.222     

> <intraEL>
7.977     

> <intraDihe>
5.373     

> <interLJ>
0.000     

> <interEJ>
0.000     

> <gridLJ>
-2.315    

> <gridEL>
0.000     

> <totalE>
12.257    

> <LGFE>
-2.315  

> <LE>
-0.386  

> <SMILES>
C1C[NH2+]CCN1

> <atom.dprop.GFE>
-0.15 -0.016 -2 0.18 0.089 -0.45 0 0 0 0 0 0 0 0 0 0 0

> <atom.prop.CLASS>
PRPC PRPC MAMN PRPC PRPC GEND NCLA NCLA NCLA NCLA NCLA NCLA NCLA NCLA NCLA NCLA NCLA

$$$$
