51_2
     RDKit          3D

 12 12  0  0  0  0  0  0  0  0999 V2000
   24.8833    1.3981  -22.9467 O   0  0  0  0  0  0  0  0  0  0  0  0
   24.1271    0.7165  -22.0801 C   0  0  0  0  0  0  0  0  0  0  0  0
   23.8991    1.1298  -20.6650 C   0  0  0  0  0  0  0  0  0  0  0  0
   23.2619   -0.1765  -20.1568 C   0  0  0  0  0  0  0  0  0  0  0  0
   22.8495   -0.8393  -21.4030 N   0  0  0  0  0  0  0  0  0  0  0  0
   23.5779   -0.3409  -22.4656 N   0  0  0  0  0  0  0  0  0  0  0  0
   24.7887    0.8498  -23.7482 H   0  0  0  0  0  0  0  0  0  0  0  0
   23.1793    1.9355  -20.6539 H   0  0  0  0  0  0  0  0  0  0  0  0
   24.8358    1.3324  -20.1691 H   0  0  0  0  0  0  0  0  0  0  0  0
   22.4078    0.0209  -19.5059 H   0  0  0  0  0  0  0  0  0  0  0  0
   24.0093   -0.7858  -19.6451 H   0  0  0  0  0  0  0  0  0  0  0  0
   22.7212   -1.8688  -21.3835 H   0  0  0  0  0  0  0  0  0  0  0  0
  1  2  1  0
  1  7  1  0
  2  3  1  0
  2  6  2  0
  3  4  1  0
  3  8  1  0
  3  9  1  0
  4  5  1  0
  4 10  1  0
  4 11  1  0
  5  6  1  0
  5 12  1  0
M  END
> <intraLJ>
-0.691    

> <intraEL>
-4.206    

> <intraDihe>
21.287    

> <interLJ>
0.000     

> <interEJ>
0.000     

> <gridLJ>
-2.768    

> <gridEL>
0.000     

> <totalE>
13.622    

> <LGFE>
-2.768  

> <LE>
-0.461  

> <SMILES>
OC1=NNCC1

> <atom.dprop.GFE>
-0.59 -0.038 -0.46 -0.34 -0.67 -0.67 0 0 0 0 0 0

> <atom.prop.CLASS>
MEOO GEHC PRPC PRPC GEND GENA NCLA NCLA NCLA NCLA NCLA NCLA

$$$$
