11_1
     RDKit          3D

 11 11  0  0  0  0  0  0  0  0999 V2000
   24.6901    7.8175   -8.6043 O   0  0  0  0  0  0  0  0  0  0  0  0
   23.9993    6.9686   -8.0780 C   0  0  0  0  0  0  0  0  0  0  0  0
   24.3497    5.5446   -7.7904 C   0  0  0  0  0  0  0  0  0  0  0  0
   23.2767    5.2067   -6.7341 C   0  0  0  0  0  0  0  0  0  0  0  0
   22.1724    6.1317   -7.0087 O   0  0  0  0  0  0  0  0  0  0  0  0
   22.7626    7.2226   -7.6518 N   0  0  0  0  0  0  0  0  0  0  0  0
   25.3478    5.4653   -7.3848 H   0  0  0  0  0  0  0  0  0  0  0  0
   24.1718    4.9665   -8.6844 H   0  0  0  0  0  0  0  0  0  0  0  0
   23.6641    5.3999   -5.7320 H   0  0  0  0  0  0  0  0  0  0  0  0
   22.9471    4.1696   -6.8170 H   0  0  0  0  0  0  0  0  0  0  0  0
   22.3027    8.1391   -7.7609 H   0  0  0  0  0  0  0  0  0  0  0  0
  1  2  2  0
  2  3  1  0
  2  6  1  0
  3  4  1  0
  3  7  1  0
  3  8  1  0
  4  5  1  0
  4  9  1  0
  4 10  1  0
  5  6  1  0
  6 11  1  0
M  END
> <intraLJ>
-0.418    

> <intraEL>
-2.154    

> <intraDihe>
5.561     

> <interLJ>
0.000     

> <interEJ>
0.000     

> <gridLJ>
-4.555    

> <gridEL>
0.000     

> <totalE>
-1.566    

> <LGFE>
-4.555  

> <LE>
-0.759  

> <SMILES>
O=C1CCON1

> <atom.dprop.GFE>
-1.3 -0.36 -0.31 -0.29 -1.1 -1.3 0 0 0 0 0

> <atom.prop.CLASS>
GENA GEHC PRPC PRPC GENA GEND NCLA NCLA NCLA NCLA NCLA

$$$$
