18
     RDKit          3D

 13 13  0  0  0  0  0  0  0  0999 V2000
   26.4218    9.5397   -8.6946 O   0  0  0  0  0  0  0  0  0  0  0  0
   25.2665    9.3656   -7.8544 C   0  0  0  0  0  0  0  0  0  0  0  0
   25.4773    8.0954   -6.8757 C   0  0  0  0  0  0  0  0  0  0  0  0
   24.3050    7.2104   -7.8120 S   0  0  0  0  0  0  0  0  0  0  0  0
   23.1590    6.9005   -7.0269 O   0  0  0  0  0  0  0  0  0  0  0  0
   24.9169    6.1989   -8.6042 O   0  0  0  0  0  0  0  0  0  0  0  0
   24.0695    8.6855   -8.7059 C   0  0  0  0  0  0  0  0  0  0  0  0
   27.1340   10.0047   -8.2223 H   0  0  0  0  0  0  0  0  0  0  0  0
   24.9967   10.2863   -7.3546 H   0  0  0  0  0  0  0  0  0  0  0  0
   25.2127    8.4007   -5.8723 H   0  0  0  0  0  0  0  0  0  0  0  0
   26.5204    7.8111   -6.9187 H   0  0  0  0  0  0  0  0  0  0  0  0
   24.3413    8.7258   -9.7527 H   0  0  0  0  0  0  0  0  0  0  0  0
   23.1687    9.2573   -8.5293 H   0  0  0  0  0  0  0  0  0  0  0  0
  1  2  1  0
  1  8  1  0
  2  3  1  0
  2  7  1  0
  2  9  1  0
  3  4  1  0
  3 10  1  0
  3 11  1  0
  4  5  2  0
  4  6  2  0
  4  7  1  0
  7 12  1  0
  7 13  1  0
M  END
> <intraLJ>
0.307     

> <intraEL>
-1.458    

> <intraDihe>
23.153    

> <interLJ>
0.000     

> <interEJ>
0.000     

> <gridLJ>
-3.696    

> <gridEL>
0.000     

> <totalE>
18.306    

> <LGFE>
-3.696  

> <LE>
-0.528  

> <SMILES>
O=S1(=O)CC(O)C1

> <atom.dprop.GFE>
-0.31 -0.26 -0.3 0 -1.2 -1.2 -0.37 0 0 0 0 0 0

> <atom.prop.CLASS>
MEOO PRPC PRPC NCLA GENA GENA PRPC NCLA NCLA NCLA NCLA NCLA NCLA

$$$$
