14_2
     RDKit          3D

 19 19  0  0  1  0  0  0  0  0999 V2000
  -24.1896    3.3816   22.1940 C   0  0  0  0  0  0  0  0  0  0  0  0
  -25.0731    4.2646   21.4073 N   0  0  0  0  0  0  0  0  0  0  0  0
  -26.0739    3.4819   20.6712 C   0  0  0  0  0  0  0  0  0  0  0  0
  -27.2058    4.4962   20.4147 C   0  0  0  0  0  0  0  0  0  0  0  0
  -26.8387    5.7136   21.2681 C   0  0  0  0  0  0  0  0  0  0  0  0
  -26.1144    6.6214   20.4508 O   0  0  0  0  0  0  0  0  0  0  0  0
  -25.8582    5.1307   22.2924 C   0  0  0  0  0  0  0  0  0  0  0  0
  -23.6464    2.7445   21.5060 H   0  0  0  0  0  0  0  0  0  0  0  0
  -24.7989    2.7878   22.8661 H   0  0  0  0  0  0  0  0  0  0  0  0
  -23.5010    4.0052   22.7535 H   0  0  0  0  0  0  0  0  0  0  0  0
  -24.5705    4.8722   20.7591 H   0  0  0  0  0  0  0  0  0  0  0  0
  -25.6746    3.1258   19.7273 H   0  0  0  0  0  0  0  0  0  0  0  0
  -26.4607    2.6842   21.2960 H   0  0  0  0  0  0  0  0  0  0  0  0
  -28.1582    4.0733   20.7385 H   0  0  0  0  0  0  0  0  0  0  0  0
  -27.2578    4.7567   19.3574 H   0  0  0  0  0  0  0  0  0  0  0  0
  -27.7159    6.1919   21.7113 H   0  0  0  0  0  0  0  0  0  0  0  0
  -26.7249    7.1675   19.9407 H   0  0  0  0  0  0  0  0  0  0  0  0
  -26.4050    4.5461   23.0228 H   0  0  0  0  0  0  0  0  0  0  0  0
  -25.2541    5.9260   22.7148 H   0  0  0  0  0  0  0  0  0  0  0  0
  1  2  1  0
  1  8  1  0
  1  9  1  0
  1 10  1  0
  2  3  1  0
  2  7  1  0
  2 11  1  0
  3  4  1  0
  3 12  1  0
  3 13  1  0
  4  5  1  0
  4 14  1  0
  4 15  1  0
  5  6  1  0
  5  7  1  0
  5 16  1  0
  6 17  1  0
  7 18  1  0
  7 19  1  0
M  CHG  1   2   1
M  END
> <intraLJ>
3.793     

> <intraEL>
3.185     

> <intraDihe>
12.263    

> <interLJ>
0.000     

> <interEJ>
0.000     

> <gridLJ>
-2.754    

> <gridEL>
0.000     

> <totalE>
16.487    

> <LGFE>
-2.754  

> <LE>
-0.393  

> <SMILES>
C[NH+]1CCC(O)C1

> <atom.dprop.GFE>
-0.004 -0.06 -0.3 -0.28 -0.39 -1.4 -0.29 0 0 0 0 0 0 0 0 0 0 0 0

> <atom.prop.CLASS>
PRPC MAMN PRPC PRPC PRPC MEOO PRPC NCLA NCLA NCLA NCLA NCLA NCLA NCLA NCLA NCLA NCLA NCLA NCLA

$$$$
