65
     RDKit          3D

 12 12  0  0  0  0  0  0  0  0999 V2000
   21.9441   13.9286   -2.4037 N   0  0  0  0  0  0  0  0  0  0  0  0
   21.7003   14.2727   -3.6682 C   0  0  0  0  0  0  0  0  0  0  0  0
   20.4409   14.1963   -4.0757 N   0  0  0  0  0  0  0  0  0  0  0  0
   20.1911   14.5379   -5.3282 C   0  0  0  0  0  0  0  0  0  0  0  0
   21.2205   14.9616   -6.1557 C   0  0  0  0  0  0  0  0  0  0  0  0
   22.5084   15.0185   -5.6410 C   0  0  0  0  0  0  0  0  0  0  0  0
   22.7404   14.6732   -4.3869 N   0  0  0  0  0  0  0  0  0  0  0  0
   22.8176   14.3233   -2.0464 H   0  0  0  0  0  0  0  0  0  0  0  0
   21.1096   13.9737   -1.8126 H   0  0  0  0  0  0  0  0  0  0  0  0
   19.1928   14.4822   -5.6835 H   0  0  0  0  0  0  0  0  0  0  0  0
   21.0288   15.2361   -7.1592 H   0  0  0  0  0  0  0  0  0  0  0  0
   23.3224   15.3384   -6.2417 H   0  0  0  0  0  0  0  0  0  0  0  0
  1  2  1  0
  1  8  1  0
  1  9  1  0
  2  3  2  0
  2  7  1  0
  3  4  1  0
  4  5  2  0
  4 10  1  0
  5  6  1  0
  5 11  1  0
  6  7  2  0
  6 12  1  0
M  END
> <intraLJ>
20.123    

> <intraEL>
-18.333   

> <intraDihe>
1.049     

> <interLJ>
0.000     

> <interEJ>
0.000     

> <gridLJ>
-3.444    

> <gridEL>
0.000     

> <totalE>
-0.606    

> <LGFE>
-3.444  

> <LE>
-0.492  

> <SMILES>
Nc1ncccn1

> <atom.dprop.GFE>
-0.43 -0.2 -1.1 -0.34 -0.24 -0.26 -0.93 0 0 0 0 0

> <atom.prop.CLASS>
GEND GEHC GENA BENC BENC BENC GENA NCLA NCLA NCLA NCLA NCLA

$$$$
