7_2
     RDKit          3D

 14 14  0  0  1  0  0  0  0  0999 V2000
   -3.7328   11.1332  -11.0025 O   0  0  0  0  0  0  0  0  0  0  0  0
   -3.3563   10.5140   -9.9936 C   0  0  0  0  0  0  0  0  0  0  0  0
   -2.2153    9.9951   -9.8452 O   0  0  0  0  0  0  0  0  0  0  0  0
   -4.3176   10.2425   -8.8353 C   0  0  0  0  0  0  0  0  0  0  0  0
   -5.5386    9.4147   -9.2998 C   0  0  0  0  0  0  0  0  0  0  0  0
   -6.3948   10.5117   -8.6197 C   0  0  0  0  0  0  0  0  0  0  0  0
   -5.2313   11.4149   -8.6454 N   0  0  0  0  0  0  0  0  0  0  0  0
   -3.8329    9.8574   -7.9494 H   0  0  0  0  0  0  0  0  0  0  0  0
   -5.6701    9.3919  -10.3736 H   0  0  0  0  0  0  0  0  0  0  0  0
   -5.6151    8.4448   -8.8296 H   0  0  0  0  0  0  0  0  0  0  0  0
   -6.6811   10.2401   -7.6121 H   0  0  0  0  0  0  0  0  0  0  0  0
   -7.2234   10.8500   -9.2266 H   0  0  0  0  0  0  0  0  0  0  0  0
   -5.0336   11.9740   -7.7704 H   0  0  0  0  0  0  0  0  0  0  0  0
   -5.1059   11.9720   -9.5728 H   0  0  0  0  0  0  0  0  0  0  0  0
  1  2  2  0
  2  3  1  0
  2  4  1  0
  4  5  1  0
  4  7  1  0
  4  8  1  0
  5  6  1  0
  5  9  1  0
  5 10  1  0
  6  7  1  0
  6 11  1  0
  6 12  1  0
  7 13  1  0
  7 14  1  0
M  CHG  2   3  -1   7   1
M  END
> <intraLJ>
1.577     

> <intraEL>
-1.175    

> <intraDihe>
6.942     

> <interLJ>
0.000     

> <interEJ>
0.000     

> <gridLJ>
-2.360    

> <gridEL>
0.000     

> <totalE>
4.984     

> <LGFE>
-2.360  

> <LE>
-0.337  

> <SMILES>
O=C([O-])C1CC[NH2+]1

> <atom.dprop.GFE>
0 0.38 0 -0.31 -0.46 -0.55 -1.4 0 0 0 0 0 0 0

> <atom.prop.CLASS>
NCLA ACEC NCLA PRPC PRPC PRPC MAMN NCLA NCLA NCLA NCLA NCLA NCLA NCLA

$$$$
