1
     RDKit          3D

  9  9  0  0  0  0  0  0  0  0999 V2000
  -35.9169    4.1473   32.2450 Br  0  0  0  0  0  0  0  0  0  0  0  0
  -35.6063    2.4142   32.9074 C   0  0  0  0  0  0  0  0  0  0  0  0
  -34.8688    2.0673   34.0353 C   0  0  0  0  0  0  0  0  0  0  0  0
  -34.8545    0.7707   34.2090 N   0  0  0  0  0  0  0  0  0  0  0  0
  -35.5949    0.2806   33.1776 N   0  0  0  0  0  0  0  0  0  0  0  0
  -36.0622    1.2612   32.3735 C   0  0  0  0  0  0  0  0  0  0  0  0
  -34.3749    2.7487   34.6798 H   0  0  0  0  0  0  0  0  0  0  0  0
  -35.7663   -0.7350   33.0454 H   0  0  0  0  0  0  0  0  0  0  0  0
  -36.6582    1.0688   31.5200 H   0  0  0  0  0  0  0  0  0  0  0  0
  1  2  1  0
  2  3  1  0
  2  6  2  0
  3  4  2  0
  3  7  1  0
  4  5  1  0
  5  6  1  0
  5  8  1  0
  6  9  1  0
M  END
> <intraLJ>
-0.882    

> <intraEL>
0.676     

> <intraDihe>
0.000     

> <interLJ>
0.000     

> <interEJ>
0.000     

> <gridLJ>
-2.218    

> <gridEL>
0.000     

> <totalE>
-2.425    

> <LGFE>
-2.218  

> <LE>
-0.370  

> <SMILES>
Brc1cn[nH]c1

> <atom.dprop.GFE>
-0.79 -0.15 -0.11 -0.46 -0.58 -0.14 0 0 0

> <atom.prop.CLASS>
GENA GEHC GEHC GENA GEND GEHC NCLA NCLA NCLA

$$$$
