13
     RDKit          3D

 13 12  0  0  0  0  0  0  0  0999 V2000
    7.6900   16.1868   -9.7172 C   0  0  0  0  0  0  0  0  0  0  0  0
    8.9946   15.4522   -9.3412 C   0  0  0  0  0  0  0  0  0  0  0  0
   10.1528   16.2993   -9.8255 C   0  0  0  0  0  0  0  0  0  0  0  0
   10.8398   16.9758   -9.0766 O   0  0  0  0  0  0  0  0  0  0  0  0
   10.4496   16.2853  -11.1502 N   0  0  0  0  0  0  0  0  0  0  0  0
   11.5278   17.0492  -11.6412 O   0  0  0  0  0  0  0  0  0  0  0  0
    6.8470   15.5746   -9.3952 H   0  0  0  0  0  0  0  0  0  0  0  0
    7.6644   16.3181  -10.8012 H   0  0  0  0  0  0  0  0  0  0  0  0
    7.6638   17.1574   -9.2177 H   0  0  0  0  0  0  0  0  0  0  0  0
    9.0281   14.5051   -9.8622 H   0  0  0  0  0  0  0  0  0  0  0  0
    9.0507   15.3450   -8.2666 H   0  0  0  0  0  0  0  0  0  0  0  0
    9.9124   15.7200  -11.8275 H   0  0  0  0  0  0  0  0  0  0  0  0
   11.9040   17.4910  -10.8409 H   0  0  0  0  0  0  0  0  0  0  0  0
  1  2  1  0
  1  7  1  0
  1  8  1  0
  1  9  1  0
  2  3  1  0
  2 10  1  0
  2 11  1  0
  3  4  2  0
  3  5  1  0
  5  6  1  0
  5 12  1  0
  6 13  1  0
M  END
> <intraLJ>
0.089     

> <intraEL>
2.377     

> <intraDihe>
5.904     

> <interLJ>
0.000     

> <interEJ>
0.000     

> <gridLJ>
-2.403    

> <gridEL>
0.000     

> <totalE>
5.966     

> <LGFE>
-2.403  

> <LE>
-0.401  

> <SMILES>
CCC(=O)NO

> <atom.dprop.GFE>
-0.27 -0.34 0 -0.68 -0.87 -0.25 0 0 0 0 0 0 0

> <atom.prop.CLASS>
PRPC PRPC NCLA GENA GEND MEOO NCLA NCLA NCLA NCLA NCLA NCLA NCLA

$$$$
