13
     RDKit          3D

 13 12  0  0  0  0  0  0  0  0999 V2000
   10.8660   -4.7497  -39.1946 C   0  0  0  0  0  0  0  0  0  0  0  0
   10.9270   -3.2659  -38.7732 C   0  0  0  0  0  0  0  0  0  0  0  0
   12.1897   -2.6739  -39.3638 C   0  0  0  0  0  0  0  0  0  0  0  0
   12.1878   -1.9547  -40.3503 O   0  0  0  0  0  0  0  0  0  0  0  0
   13.3718   -2.9407  -38.7519 N   0  0  0  0  0  0  0  0  0  0  0  0
   14.5694   -2.3990  -39.2612 O   0  0  0  0  0  0  0  0  0  0  0  0
    9.9726   -5.1945  -38.7549 H   0  0  0  0  0  0  0  0  0  0  0  0
   11.7586   -5.2552  -38.8198 H   0  0  0  0  0  0  0  0  0  0  0  0
   10.8230   -4.8156  -40.2838 H   0  0  0  0  0  0  0  0  0  0  0  0
   10.9992   -3.2087  -37.6957 H   0  0  0  0  0  0  0  0  0  0  0  0
   10.0656   -2.7441  -39.1668 H   0  0  0  0  0  0  0  0  0  0  0  0
   13.4317   -3.5300  -37.9058 H   0  0  0  0  0  0  0  0  0  0  0  0
   14.2879   -1.8681  -40.0461 H   0  0  0  0  0  0  0  0  0  0  0  0
  1  2  1  0
  1  7  1  0
  1  8  1  0
  1  9  1  0
  2  3  1  0
  2 10  1  0
  2 11  1  0
  3  4  2  0
  3  5  1  0
  5  6  1  0
  5 12  1  0
  6 13  1  0
M  END
> <intraLJ>
0.080     

> <intraEL>
2.378     

> <intraDihe>
5.910     

> <interLJ>
0.000     

> <interEJ>
0.000     

> <gridLJ>
-2.181    

> <gridEL>
0.000     

> <totalE>
6.187     

> <LGFE>
-2.181  

> <LE>
-0.364  

> <SMILES>
CCC(=O)NO

> <atom.dprop.GFE>
-0.24 -0.27 0 -0.68 -0.5 -0.49 0 0 0 0 0 0 0

> <atom.prop.CLASS>
PRPC PRPC NCLA GENA GEND MEOO NCLA NCLA NCLA NCLA NCLA NCLA NCLA

$$$$
