27_1
     RDKit          3D

 11 11  0  0  0  0  0  0  0  0999 V2000
  -16.7995   -6.8858   -5.6461 N   0  0  0  0  0  0  0  0  0  0  0  0
  -16.2817   -8.0038   -6.2531 C   0  0  0  0  0  0  0  0  0  0  0  0
  -16.6081   -8.4140   -7.4375 N   0  0  0  0  0  0  0  0  0  0  0  0
  -15.8538   -9.5414   -7.6184 C   0  0  0  0  0  0  0  0  0  0  0  0
  -15.0826   -9.7916   -6.5342 C   0  0  0  0  0  0  0  0  0  0  0  0
  -15.3645   -8.8012   -5.6578 N   0  0  0  0  0  0  0  0  0  0  0  0
  -16.1404   -6.3651   -5.0567 H   0  0  0  0  0  0  0  0  0  0  0  0
  -17.2979   -6.3035   -6.3339 H   0  0  0  0  0  0  0  0  0  0  0  0
  -15.8800  -10.1339   -8.4985 H   0  0  0  0  0  0  0  0  0  0  0  0
  -14.3930  -10.5711   -6.3371 H   0  0  0  0  0  0  0  0  0  0  0  0
  -14.9907   -8.6638   -4.7087 H   0  0  0  0  0  0  0  0  0  0  0  0
  1  2  1  0
  1  7  1  0
  1  8  1  0
  2  3  2  0
  2  6  1  0
  3  4  1  0
  4  5  2  0
  4  9  1  0
  5  6  1  0
  5 10  1  0
  6 11  1  0
M  END
> <intraLJ>
-0.193    

> <intraEL>
-10.326   

> <intraDihe>
2.842     

> <interLJ>
0.000     

> <interEJ>
0.000     

> <gridLJ>
-3.347    

> <gridEL>
0.000     

> <totalE>
-11.023   

> <LGFE>
-3.347  

> <LE>
-0.558  

> <SMILES>
Nc1ncc[nH]1

> <atom.dprop.GFE>
-1.4 -0.13 -0.66 -0.081 -0.1 -0.99 0 0 0 0 0

> <atom.prop.CLASS>
GEND GEHC GENA GEHC GEHC GEND NCLA NCLA NCLA NCLA NCLA

$$$$
