47_1
     RDKit          3D

 10  9  0  0  0  0  0  0  0  0999 V2000
   22.6361    9.8810  -32.6402 N   0  0  0  0  0  0  0  0  0  0  0  0
   22.1617    8.8287  -31.6871 C   0  0  0  0  0  0  0  0  0  0  0  0
   23.0436    7.5618  -31.6145 C   0  0  0  0  0  0  0  0  0  0  0  0
   23.7705    7.3082  -30.6647 O   0  0  0  0  0  0  0  0  0  0  0  0
   23.0260    6.6417  -32.5985 O   0  0  0  0  0  0  0  0  0  0  0  0
   21.9510   10.6180  -32.7357 H   0  0  0  0  0  0  0  0  0  0  0  0
   22.8225    9.4642  -33.5453 H   0  0  0  0  0  0  0  0  0  0  0  0
   21.1630    8.5068  -31.9805 H   0  0  0  0  0  0  0  0  0  0  0  0
   22.1029    9.2515  -30.6826 H   0  0  0  0  0  0  0  0  0  0  0  0
   23.6701    5.9945  -32.3106 H   0  0  0  0  0  0  0  0  0  0  0  0
  1  2  1  0
  1  6  1  0
  1  7  1  0
  2  3  1  0
  2  8  1  0
  2  9  1  0
  3  4  2  0
  3  5  1  0
  5 10  1  0
M  END
> <intraLJ>
-0.288    

> <intraEL>
3.133     

> <intraDihe>
0.054     

> <interLJ>
0.000     

> <interEJ>
0.000     

> <gridLJ>
-2.525    

> <gridEL>
0.000     

> <totalE>
0.375     

> <LGFE>
-2.525  

> <LE>
-0.505  

> <SMILES>
NCC(=O)O

> <atom.dprop.GFE>
-1.1 -0.15 0 -0.68 -0.63 0 0 0 0 0

> <atom.prop.CLASS>
GEND PRPC NCLA GENA MEOO NCLA NCLA NCLA NCLA NCLA

$$$$
