23_1
     RDKit          3D

 11 11  0  0  0  0  0  0  0  0999 V2000
  -29.3870   14.1520   16.2824 O   0  0  0  0  0  0  0  0  0  0  0  0
  -28.6480   14.1804   17.3624 C   0  0  0  0  0  0  0  0  0  0  0  0
  -28.8668   15.1132   18.2777 N   0  0  0  0  0  0  0  0  0  0  0  0
  -28.0973   15.1043   19.3528 C   0  0  0  0  0  0  0  0  0  0  0  0
  -27.1062   14.1430   19.4896 C   0  0  0  0  0  0  0  0  0  0  0  0
  -26.9453   13.2021   18.4840 C   0  0  0  0  0  0  0  0  0  0  0  0
  -27.7279   13.2295   17.4147 N   0  0  0  0  0  0  0  0  0  0  0  0
  -28.9978   13.3866   15.8275 H   0  0  0  0  0  0  0  0  0  0  0  0
  -28.2531   15.8417   20.0995 H   0  0  0  0  0  0  0  0  0  0  0  0
  -26.4863   14.1290   20.3468 H   0  0  0  0  0  0  0  0  0  0  0  0
  -26.1983   12.4504   18.5535 H   0  0  0  0  0  0  0  0  0  0  0  0
  1  2  1  0
  1  8  1  0
  2  3  2  0
  2  7  1  0
  3  4  1  0
  4  5  2  0
  4  9  1  0
  5  6  1  0
  5 10  1  0
  6  7  2  0
  6 11  1  0
M  END
> <intraLJ>
20.130    

> <intraEL>
-14.212   

> <intraDihe>
6.700     

> <interLJ>
0.000     

> <interEJ>
0.000     

> <gridLJ>
-2.670    

> <gridEL>
0.000     

> <totalE>
9.949     

> <LGFE>
-2.670  

> <LE>
-0.381  

> <SMILES>
Oc1ncccn1

> <atom.dprop.GFE>
-0.3 -0.19 -0.81 -0.23 -0.17 -0.19 -0.79 0 0 0 0

> <atom.prop.CLASS>
MEOO GEHC GENA BENC BENC BENC GENA NCLA NCLA NCLA NCLA

$$$$
