42_2
     RDKit          3D

 18 17  0  0  1  0  0  0  0  0999 V2000
   23.7204    7.7871   -7.8125 C   0  0  0  0  0  0  0  0  0  0  0  0
   22.2685    7.6727   -7.6686 N   0  0  0  0  0  0  0  0  0  0  0  0
   21.6514    6.4884   -7.5676 C   0  0  0  0  0  0  0  0  0  0  0  0
   22.2696    5.4287   -7.6119 O   0  0  0  0  0  0  0  0  0  0  0  0
   20.1043    6.4146   -7.4125 C   0  0  0  0  0  0  0  0  0  0  0  0
   19.5558    7.6160   -6.6411 C   0  0  0  0  0  0  0  0  0  0  0  0
   19.6894    5.1747   -6.7084 N   0  0  0  0  0  0  0  0  0  0  0  0
   24.0126    8.8344   -7.9107 H   0  0  0  0  0  0  0  0  0  0  0  0
   24.0560    7.2432   -8.6987 H   0  0  0  0  0  0  0  0  0  0  0  0
   24.2188    7.3621   -6.9380 H   0  0  0  0  0  0  0  0  0  0  0  0
   21.7458    8.5365   -7.6275 H   0  0  0  0  0  0  0  0  0  0  0  0
   19.6745    6.4267   -8.4169 H   0  0  0  0  0  0  0  0  0  0  0  0
   19.9899    7.6533   -5.6401 H   0  0  0  0  0  0  0  0  0  0  0  0
   18.4692    7.5582   -6.5670 H   0  0  0  0  0  0  0  0  0  0  0  0
   19.8165    8.5377   -7.1636 H   0  0  0  0  0  0  0  0  0  0  0  0
   20.2364    5.1241   -5.8561 H   0  0  0  0  0  0  0  0  0  0  0  0
   19.9731    4.3729   -7.2549 H   0  0  0  0  0  0  0  0  0  0  0  0
   18.7013    5.1620   -6.5107 H   0  0  0  0  0  0  0  0  0  0  0  0
  1  2  1  0
  1  8  1  0
  1  9  1  0
  1 10  1  0
  2  3  1  0
  2 11  1  0
  3  4  2  0
  3  5  1  0
  5  6  1  0
  5  7  1  0
  5 12  1  0
  6 13  1  0
  6 14  1  0
  6 15  1  0
  7 16  1  0
  7 17  1  0
  7 18  1  0
M  CHG  1   7   1
M  END
> <intraLJ>
0.206     

> <intraEL>
2.981     

> <intraDihe>
0.347     

> <interLJ>
0.000     

> <interEJ>
0.000     

> <gridLJ>
-5.133    

> <gridEL>
0.000     

> <totalE>
-1.599    

> <LGFE>
-5.133  

> <LE>
-0.733  

> <SMILES>
CNC(=O)C(C)[NH3+]

> <atom.dprop.GFE>
-0.4 -1.3 0 -1.1 -0.37 -0.44 -1.6 0 0 0 0 0 0 0 0 0 0 0

> <atom.prop.CLASS>
PRPC GEND NCLA GENA PRPC PRPC MAMN NCLA NCLA NCLA NCLA NCLA NCLA NCLA NCLA NCLA NCLA NCLA

$$$$
