26_1
     RDKit          3D

 13 13  0  0  0  0  0  0  0  0999 V2000
    2.7509    3.6850  -38.6535 O   0  0  0  0  0  0  0  0  0  0  0  0
    2.4616    2.4314  -39.2905 C   0  0  0  0  0  0  0  0  0  0  0  0
    2.5741    1.4015  -38.1731 C   0  0  0  0  0  0  0  0  0  0  0  0
    1.5120    0.6921  -37.6220 C   0  0  0  0  0  0  0  0  0  0  0  0
    2.0280   -0.1114  -36.6660 C   0  0  0  0  0  0  0  0  0  0  0  0
    3.3552    0.1282  -36.6664 N   0  0  0  0  0  0  0  0  0  0  0  0
    3.7034    1.0607  -37.5920 N   0  0  0  0  0  0  0  0  0  0  0  0
    2.9206    3.4520  -37.7128 H   0  0  0  0  0  0  0  0  0  0  0  0
    3.2096    2.2249  -40.0432 H   0  0  0  0  0  0  0  0  0  0  0  0
    1.4477    2.4402  -39.6672 H   0  0  0  0  0  0  0  0  0  0  0  0
    0.4905    0.7646  -37.8954 H   0  0  0  0  0  0  0  0  0  0  0  0
    1.5746   -0.8091  -36.0103 H   0  0  0  0  0  0  0  0  0  0  0  0
    4.0462   -0.3319  -36.0432 H   0  0  0  0  0  0  0  0  0  0  0  0
  1  2  1  0
  1  8  1  0
  2  3  1  0
  2  9  1  0
  2 10  1  0
  3  4  1  0
  3  7  2  0
  4  5  2  0
  4 11  1  0
  5  6  1  0
  5 12  1  0
  6  7  1  0
  6 13  1  0
M  END
> <intraLJ>
0.291     

> <intraEL>
0.186     

> <intraDihe>
6.116     

> <interLJ>
0.000     

> <interEJ>
0.000     

> <gridLJ>
-2.974    

> <gridEL>
0.000     

> <totalE>
3.619     

> <LGFE>
-2.974  

> <LE>
-0.425  

> <SMILES>
OCc1cc[nH]n1

> <atom.dprop.GFE>
-0.42 -0.46 -0.21 -0.11 -0.2 -0.77 -0.82 0 0 0 0 0 0

> <atom.prop.CLASS>
MEOO PRPC GEHC GEHC GEHC GEND GENA NCLA NCLA NCLA NCLA NCLA NCLA

$$$$
