17_1
     RDKit          3D

 15 15  0  0  0  0  0  0  0  0999 V2000
   -0.7425    2.1269    8.6188 N   0  0  0  0  0  0  0  0  0  0  0  0
   -1.5054    3.2040    8.8512 C   0  0  0  0  0  0  0  0  0  0  0  0
   -2.0253    3.7266    7.8891 O   0  0  0  0  0  0  0  0  0  0  0  0
   -1.6427    3.6815   10.3195 C   0  0  0  0  0  0  0  0  0  0  0  0
   -1.0329    2.8427   11.3569 N   0  0  0  0  0  0  0  0  0  0  0  0
   -2.8827    4.4063   10.7286 C   0  0  0  0  0  0  0  0  0  0  0  0
   -1.5698    5.1517   10.5678 C   0  0  0  0  0  0  0  0  0  0  0  0
   -0.6385    1.8122    7.6711 H   0  0  0  0  0  0  0  0  0  0  0  0
   -0.3038    1.6746    9.4029 H   0  0  0  0  0  0  0  0  0  0  0  0
   -1.5661    1.9703   11.4151 H   0  0  0  0  0  0  0  0  0  0  0  0
   -1.1467    3.3155   12.2572 H   0  0  0  0  0  0  0  0  0  0  0  0
   -3.2348    4.2506   11.7389 H   0  0  0  0  0  0  0  0  0  0  0  0
   -3.6253    4.5702    9.9579 H   0  0  0  0  0  0  0  0  0  0  0  0
   -1.4810    5.7837    9.6944 H   0  0  0  0  0  0  0  0  0  0  0  0
   -1.0690    5.4693   11.4718 H   0  0  0  0  0  0  0  0  0  0  0  0
  1  2  1  0
  1  8  1  0
  1  9  1  0
  2  3  2  0
  2  4  1  0
  4  5  1  0
  4  6  1  0
  4  7  1  0
  5 10  1  0
  5 11  1  0
  6  7  1  0
  6 12  1  0
  6 13  1  0
  7 14  1  0
  7 15  1  0
M  END
> <intraLJ>
3.003     

> <intraEL>
0.468     

> <intraDihe>
8.481     

> <interLJ>
0.000     

> <interEJ>
0.000     

> <gridLJ>
-3.517    

> <gridEL>
0.000     

> <totalE>
8.435     

> <LGFE>
-3.517  

> <LE>
-0.502  

> <SMILES>
NC(=O)C1(N)CC1

> <atom.dprop.GFE>
-1 0 -1.1 -0.38 -0.32 -0.36 -0.35 0 0 0 0 0 0 0 0

> <atom.prop.CLASS>
GEND NCLA GENA PRPC GEND PRPC PRPC NCLA NCLA NCLA NCLA NCLA NCLA NCLA NCLA

$$$$
