19_1
     RDKit          3D

 11 11  0  0  0  0  0  0  0  0999 V2000
   -6.0218    4.2021  -12.5157 N   0  0  0  0  0  0  0  0  0  0  0  0
   -4.8835    4.7521  -11.9738 C   0  0  0  0  0  0  0  0  0  0  0  0
   -4.1533    4.3066  -10.8802 C   0  0  0  0  0  0  0  0  0  0  0  0
   -3.1172    5.1642  -10.7562 C   0  0  0  0  0  0  0  0  0  0  0  0
   -3.2716    6.0630  -11.7597 N   0  0  0  0  0  0  0  0  0  0  0  0
   -4.3776    5.8020  -12.5308 N   0  0  0  0  0  0  0  0  0  0  0  0
   -6.1254    4.6119  -13.4527 H   0  0  0  0  0  0  0  0  0  0  0  0
   -5.9371    3.1808  -12.5505 H   0  0  0  0  0  0  0  0  0  0  0  0
   -4.3732    3.4704  -10.2699 H   0  0  0  0  0  0  0  0  0  0  0  0
   -2.3177    5.2093  -10.0637 H   0  0  0  0  0  0  0  0  0  0  0  0
   -2.6353    6.8623  -11.9381 H   0  0  0  0  0  0  0  0  0  0  0  0
  1  2  1  0
  1  7  1  0
  1  8  1  0
  2  3  1  0
  2  6  2  0
  3  4  2  0
  3  9  1  0
  4  5  1  0
  4 10  1  0
  5  6  1  0
  5 11  1  0
M  END
> <intraLJ>
-0.199    

> <intraEL>
-8.716    

> <intraDihe>
2.079     

> <interLJ>
0.000     

> <interEJ>
0.000     

> <gridLJ>
-2.641    

> <gridEL>
0.000     

> <totalE>
-9.476    

> <LGFE>
-2.641  

> <LE>
-0.440  

> <SMILES>
Nc1cc[nH]n1

> <atom.dprop.GFE>
-1 -0.16 -0.14 -0.16 -0.42 -0.73 0 0 0 0 0

> <atom.prop.CLASS>
GEND GEHC GEHC GEHC GEND GENA NCLA NCLA NCLA NCLA NCLA

$$$$
