57_2
     RDKit          3D

 14 14  0  0  0  0  0  0  0  0999 V2000
   13.1605   -3.2550  -46.4831 O   0  0  0  0  0  0  0  0  0  0  0  0
   13.0235   -4.2688  -45.7605 C   0  0  0  0  0  0  0  0  0  0  0  0
   12.1515   -5.1408  -45.9846 O   0  0  0  0  0  0  0  0  0  0  0  0
   13.9920   -4.4819  -44.6118 C   0  0  0  0  0  0  0  0  0  0  0  0
   13.3212   -5.0369  -43.3222 C   0  0  0  0  0  0  0  0  0  0  0  0
   14.2566   -4.0757  -42.5324 C   0  0  0  0  0  0  0  0  0  0  0  0
   14.3025   -3.1854  -43.8080 C   0  0  0  0  0  0  0  0  0  0  0  0
   14.8706   -5.0304  -44.9273 H   0  0  0  0  0  0  0  0  0  0  0  0
   13.5107   -6.0867  -43.1411 H   0  0  0  0  0  0  0  0  0  0  0  0
   12.2782   -4.7627  -43.2283 H   0  0  0  0  0  0  0  0  0  0  0  0
   15.2159   -4.5236  -42.3028 H   0  0  0  0  0  0  0  0  0  0  0  0
   13.7874   -3.6031  -41.6807 H   0  0  0  0  0  0  0  0  0  0  0  0
   13.4977   -2.4613  -43.8336 H   0  0  0  0  0  0  0  0  0  0  0  0
   15.2746   -2.7592  -44.0162 H   0  0  0  0  0  0  0  0  0  0  0  0
  1  2  2  0
  2  3  1  0
  2  4  1  0
  4  5  1  0
  4  7  1  0
  4  8  1  0
  5  6  1  0
  5  9  1  0
  5 10  1  0
  6  7  1  0
  6 11  1  0
  6 12  1  0
  7 13  1  0
  7 14  1  0
M  CHG  1   3  -1
M  END
> <intraLJ>
0.196     

> <intraEL>
2.090     

> <intraDihe>
17.601    

> <interLJ>
0.000     

> <interEJ>
0.000     

> <gridLJ>
-2.178    

> <gridEL>
0.000     

> <totalE>
17.708    

> <LGFE>
-2.178  

> <LE>
-0.311  

> <SMILES>
O=C([O-])C1CCC1

> <atom.dprop.GFE>
0 -1.5 0 -0.2 -0.13 -0.19 -0.19 0 0 0 0 0 0 0

> <atom.prop.CLASS>
NCLA ACEC NCLA PRPC PRPC PRPC PRPC NCLA NCLA NCLA NCLA NCLA NCLA NCLA

$$$$
