32
     RDKit          3D

 17 16  0  0  0  0  0  0  0  0999 V2000
   -2.7204    4.8110  -12.0957 C   0  0  0  0  0  0  0  0  0  0  0  0
   -4.0107    4.1396  -11.6315 C   0  0  0  0  0  0  0  0  0  0  0  0
   -4.0147    2.6568  -11.9989 C   0  0  0  0  0  0  0  0  0  0  0  0
   -5.0835    4.7632  -12.3811 N   0  0  0  0  0  0  0  0  0  0  0  0
   -5.9975    5.6119  -11.8748 C   0  0  0  0  0  0  0  0  0  0  0  0
   -5.8529    6.1154  -10.7801 O   0  0  0  0  0  0  0  0  0  0  0  0
   -7.0792    5.8705  -12.6116 N   0  0  0  0  0  0  0  0  0  0  0  0
   -1.8697    4.3659  -11.5805 H   0  0  0  0  0  0  0  0  0  0  0  0
   -2.7588    5.8753  -11.8602 H   0  0  0  0  0  0  0  0  0  0  0  0
   -2.5915    4.6869  -13.1710 H   0  0  0  0  0  0  0  0  0  0  0  0
   -4.1051    4.2526  -10.5504 H   0  0  0  0  0  0  0  0  0  0  0  0
   -3.9050    2.5313  -13.0761 H   0  0  0  0  0  0  0  0  0  0  0  0
   -4.9552    2.2052  -11.6825 H   0  0  0  0  0  0  0  0  0  0  0  0
   -3.1932    2.1507  -11.4931 H   0  0  0  0  0  0  0  0  0  0  0  0
   -5.4414    4.2369  -13.1858 H   0  0  0  0  0  0  0  0  0  0  0  0
   -7.8364    6.3502  -12.1127 H   0  0  0  0  0  0  0  0  0  0  0  0
   -7.3075    5.2067  -13.3527 H   0  0  0  0  0  0  0  0  0  0  0  0
  1  2  1  0
  1  8  1  0
  1  9  1  0
  1 10  1  0
  2  3  1  0
  2  4  1  0
  2 11  1  0
  3 12  1  0
  3 13  1  0
  3 14  1  0
  4  5  1  0
  4 15  1  0
  5  6  2  0
  5  7  1  0
  7 16  1  0
  7 17  1  0
M  END
> <intraLJ>
-0.709    

> <intraEL>
-9.451    

> <intraDihe>
5.508     

> <interLJ>
0.000     

> <interEJ>
0.000     

> <gridLJ>
-2.452    

> <gridEL>
0.000     

> <totalE>
-7.105    

> <LGFE>
-2.452  

> <LE>
-0.350  

> <SMILES>
CC(C)NC(N)=O

> <atom.dprop.GFE>
-0.033 -0.2 0.27 -1 0 -0.64 -0.82 0 0 0 0 0 0 0 0 0 0

> <atom.prop.CLASS>
PRPC PRPC PRPC GEND NCLA GENA GEND NCLA NCLA NCLA NCLA NCLA NCLA NCLA NCLA NCLA NCLA

$$$$
