24_2
     RDKit          3D

 17 17  0  0  0  0  0  0  0  0999 V2000
  -24.8394    5.7930    1.7248 N   0  0  0  0  0  0  0  0  0  0  0  0
  -24.0668    5.1150    2.5032 C   0  0  0  0  0  0  0  0  0  0  0  0
  -23.9601    5.4754    3.7531 N   0  0  0  0  0  0  0  0  0  0  0  0
  -23.0677    4.8109    4.7122 C   0  0  0  0  0  0  0  0  0  0  0  0
  -22.9500    3.3542    4.2528 C   0  0  0  0  0  0  0  0  0  0  0  0
  -22.4767    3.2846    2.7977 C   0  0  0  0  0  0  0  0  0  0  0  0
  -23.4258    4.0880    2.0162 N   0  0  0  0  0  0  0  0  0  0  0  0
  -24.9616    5.5076    0.7492 H   0  0  0  0  0  0  0  0  0  0  0  0
  -25.3763    6.5818    2.0958 H   0  0  0  0  0  0  0  0  0  0  0  0
  -24.4556    6.3224    4.0452 H   0  0  0  0  0  0  0  0  0  0  0  0
  -23.4887    4.8446    5.7207 H   0  0  0  0  0  0  0  0  0  0  0  0
  -22.0831    5.2856    4.7158 H   0  0  0  0  0  0  0  0  0  0  0  0
  -23.9174    2.8571    4.3497 H   0  0  0  0  0  0  0  0  0  0  0  0
  -22.2345    2.8331    4.8898 H   0  0  0  0  0  0  0  0  0  0  0  0
  -22.4788    2.2436    2.4607 H   0  0  0  0  0  0  0  0  0  0  0  0
  -21.4642    3.6896    2.7111 H   0  0  0  0  0  0  0  0  0  0  0  0
  -23.5241    3.8989    1.0137 H   0  0  0  0  0  0  0  0  0  0  0  0
  1  2  2  0
  1  8  1  0
  1  9  1  0
  2  3  1  0
  2  7  1  0
  3  4  1  0
  3 10  1  0
  4  5  1  0
  4 11  1  0
  4 12  1  0
  5  6  1  0
  5 13  1  0
  5 14  1  0
  6  7  1  0
  6 15  1  0
  6 16  1  0
  7 17  1  0
M  CHG  1   1   1
M  END
> <intraLJ>
2.615     

> <intraEL>
-18.178   

> <intraDihe>
0.248     

> <interLJ>
0.000     

> <interEJ>
0.000     

> <gridLJ>
-2.902    

> <gridEL>
0.000     

> <totalE>
-18.216   

> <LGFE>
-2.902  

> <LE>
-0.415  

> <SMILES>
[NH2+]=C1NCCCN1

> <atom.dprop.GFE>
0 -1.4 0 -0.38 -0.51 -0.56 0 0 0 0 0 0 0 0 0 0 0

> <atom.prop.CLASS>
NCLA MAMC NCLA PRPC PRPC PRPC NCLA NCLA NCLA NCLA NCLA NCLA NCLA NCLA NCLA NCLA NCLA

$$$$
