40_2
     RDKit          3D

 10 10  0  0  0  0  0  0  0  0999 V2000
   15.1166   11.6297  -47.9770 O   0  0  0  0  0  0  0  0  0  0  0  0
   15.9732   12.2512  -47.2632 C   0  0  0  0  0  0  0  0  0  0  0  0
   16.0451   13.6519  -47.2707 C   0  0  0  0  0  0  0  0  0  0  0  0
   16.9829   14.2798  -46.4863 C   0  0  0  0  0  0  0  0  0  0  0  0
   17.8477   13.5966  -45.7031 N   0  0  0  0  0  0  0  0  0  0  0  0
   17.7905   12.2557  -45.6862 N   0  0  0  0  0  0  0  0  0  0  0  0
   16.8988   11.5975  -46.4285 C   0  0  0  0  0  0  0  0  0  0  0  0
   15.3739   14.1949  -47.8800 H   0  0  0  0  0  0  0  0  0  0  0  0
   17.0486   15.3352  -46.4817 H   0  0  0  0  0  0  0  0  0  0  0  0
   16.8846   10.5419  -46.3888 H   0  0  0  0  0  0  0  0  0  0  0  0
  1  2  1  0
  2  3  2  0
  2  7  1  0
  3  4  1  0
  3  8  1  0
  4  5  2  0
  4  9  1  0
  5  6  1  0
  6  7  2  0
  7 10  1  0
M  CHG  1   1  -1
M  END
> <intraLJ>
15.492    

> <intraEL>
-6.927    

> <intraDihe>
0.000     

> <interLJ>
0.000     

> <interEJ>
0.000     

> <gridLJ>
-2.337    

> <gridEL>
0.000     

> <totalE>
6.228     

> <LGFE>
-2.337  

> <LE>
-0.334  

> <SMILES>
[O-]c1ccnnc1

> <atom.dprop.GFE>
0 -0.8 -0.13 -0.13 -0.59 -0.56 -0.13 0 0 0

> <atom.prop.CLASS>
NCLA ACEC BENC BENC GENA GENA BENC NCLA NCLA NCLA

$$$$
