71_1
     RDKit          3D

 18 18  0  0  0  0  0  0  0  0999 V2000
   14.2146   16.9524  -30.5964 C   0  0  0  0  0  0  0  0  0  0  0  0
   13.6769   15.5312  -30.3937 C   0  0  0  0  0  0  0  0  0  0  0  0
   13.2068   15.2617  -29.0136 N   0  0  0  0  0  0  0  0  0  0  0  0
   13.9413   15.9170  -27.8977 C   0  0  0  0  0  0  0  0  0  0  0  0
   15.4683   15.9215  -28.0598 C   0  0  0  0  0  0  0  0  0  0  0  0
   15.8976   17.0828  -28.7683 O   0  0  0  0  0  0  0  0  0  0  0  0
   15.6878   17.0707  -30.1748 C   0  0  0  0  0  0  0  0  0  0  0  0
   13.6027   17.6748  -30.0562 H   0  0  0  0  0  0  0  0  0  0  0  0
   14.1539   17.1854  -31.6580 H   0  0  0  0  0  0  0  0  0  0  0  0
   14.4676   14.8252  -30.6541 H   0  0  0  0  0  0  0  0  0  0  0  0
   12.8449   15.3603  -31.0806 H   0  0  0  0  0  0  0  0  0  0  0  0
   13.1412   14.2617  -28.8727 H   0  0  0  0  0  0  0  0  0  0  0  0
   13.6772   15.4278  -26.9592 H   0  0  0  0  0  0  0  0  0  0  0  0
   13.6212   16.9575  -27.8195 H   0  0  0  0  0  0  0  0  0  0  0  0
   15.8072   15.0069  -28.5476 H   0  0  0  0  0  0  0  0  0  0  0  0
   15.9088   15.9634  -27.0639 H   0  0  0  0  0  0  0  0  0  0  0  0
   16.0768   18.0110  -30.5697 H   0  0  0  0  0  0  0  0  0  0  0  0
   16.2665   16.2621  -30.6261 H   0  0  0  0  0  0  0  0  0  0  0  0
  1  2  1  0
  1  7  1  0
  1  8  1  0
  1  9  1  0
  2  3  1  0
  2 10  1  0
  2 11  1  0
  3  4  1  0
  3 12  1  0
  4  5  1  0
  4 13  1  0
  4 14  1  0
  5  6  1  0
  5 15  1  0
  5 16  1  0
  6  7  1  0
  7 17  1  0
  7 18  1  0
M  END
> <intraLJ>
0.655     

> <intraEL>
0.902     

> <intraDihe>
9.506     

> <interLJ>
0.000     

> <interEJ>
0.000     

> <gridLJ>
-3.962    

> <gridEL>
0.000     

> <totalE>
7.101     

> <LGFE>
-3.962  

> <LE>
-0.566  

> <SMILES>
C1CNCCOC1

> <atom.dprop.GFE>
-0.2 -0.067 -1.7 -0.3 -0.29 -1.2 -0.23 0 0 0 0 0 0 0 0 0 0 0

> <atom.prop.CLASS>
PRPC PRPC GEND PRPC PRPC GENA PRPC NCLA NCLA NCLA NCLA NCLA NCLA NCLA NCLA NCLA NCLA NCLA

$$$$
