21_1
     RDKit          3D

 17 16  0  0  0  0  0  0  0  0999 V2000
    0.6442    6.4186  -20.9403 C   0  0  0  0  0  0  0  0  0  0  0  0
   -0.0538    6.9698  -22.2007 C   0  0  0  0  0  0  0  0  0  0  0  0
   -1.4453    6.3024  -22.3050 C   0  0  0  0  0  0  0  0  0  0  0  0
    0.8003    6.6256  -23.4215 C   0  0  0  0  0  0  0  0  0  0  0  0
    1.2809    7.4826  -24.2270 N   0  0  0  0  0  0  0  0  0  0  0  0
    2.0927    7.0610  -25.2534 O   0  0  0  0  0  0  0  0  0  0  0  0
    0.9920    5.2813  -23.6725 N   0  0  0  0  0  0  0  0  0  0  0  0
    0.0318    6.6493  -20.0679 H   0  0  0  0  0  0  0  0  0  0  0  0
    1.6220    6.8919  -20.8456 H   0  0  0  0  0  0  0  0  0  0  0  0
    0.7622    5.3376  -21.0454 H   0  0  0  0  0  0  0  0  0  0  0  0
   -0.1751    8.0421  -22.1262 H   0  0  0  0  0  0  0  0  0  0  0  0
   -1.3275    5.2173  -22.3334 H   0  0  0  0  0  0  0  0  0  0  0  0
   -1.9219    6.6473  -23.2235 H   0  0  0  0  0  0  0  0  0  0  0  0
   -2.0421    6.5947  -21.4406 H   0  0  0  0  0  0  0  0  0  0  0  0
    2.4390    6.1840  -24.9842 H   0  0  0  0  0  0  0  0  0  0  0  0
    0.9435    5.0864  -24.6807 H   0  0  0  0  0  0  0  0  0  0  0  0
    0.3794    4.6766  -23.1122 H   0  0  0  0  0  0  0  0  0  0  0  0
  1  2  1  0
  1  8  1  0
  1  9  1  0
  1 10  1  0
  2  3  1  0
  2  4  1  0
  2 11  1  0
  3 12  1  0
  3 13  1  0
  3 14  1  0
  4  5  2  0
  4  7  1  0
  5  6  1  0
  6 15  1  0
  7 16  1  0
  7 17  1  0
M  END
> <intraLJ>
7.547     

> <intraEL>
0.137     

> <intraDihe>
5.064     

> <interLJ>
0.000     

> <interEJ>
0.000     

> <gridLJ>
-2.133    

> <gridEL>
0.000     

> <totalE>
10.615    

> <LGFE>
-2.133  

> <LE>
-0.305  

> <SMILES>
CC(C)C(N)=NO

> <atom.dprop.GFE>
-0.24 -0.22 -0.084 0 -0.57 -0.42 -0.61 0 0 0 0 0 0 0 0 0 0

> <atom.prop.CLASS>
PRPC PRPC PRPC NCLA GENA MEOO GEND NCLA NCLA NCLA NCLA NCLA NCLA NCLA NCLA NCLA NCLA

$$$$
