57_1
     RDKit          3D

 15 15  0  0  0  0  0  0  0  0999 V2000
  -15.0990   10.7584   -7.3883 O   0  0  0  0  0  0  0  0  0  0  0  0
  -15.7053   10.2251   -6.3652 C   0  0  0  0  0  0  0  0  0  0  0  0
  -16.7159    9.6415   -6.6482 O   0  0  0  0  0  0  0  0  0  0  0  0
  -15.1104   10.3783   -4.9767 C   0  0  0  0  0  0  0  0  0  0  0  0
  -16.1132   10.0508   -3.8338 C   0  0  0  0  0  0  0  0  0  0  0  0
  -15.4941   11.2618   -3.0745 C   0  0  0  0  0  0  0  0  0  0  0  0
  -15.1000   11.8459   -4.4642 C   0  0  0  0  0  0  0  0  0  0  0  0
  -15.6863   10.5026   -8.1017 H   0  0  0  0  0  0  0  0  0  0  0  0
  -14.1567    9.8724   -4.8840 H   0  0  0  0  0  0  0  0  0  0  0  0
  -15.9424    9.0951   -3.3580 H   0  0  0  0  0  0  0  0  0  0  0  0
  -17.1475   10.2193   -4.1050 H   0  0  0  0  0  0  0  0  0  0  0  0
  -14.6328   10.9840   -2.4805 H   0  0  0  0  0  0  0  0  0  0  0  0
  -16.2159   11.8583   -2.5334 H   0  0  0  0  0  0  0  0  0  0  0  0
  -15.8831   12.4603   -4.8900 H   0  0  0  0  0  0  0  0  0  0  0  0
  -14.1249   12.3141   -4.4858 H   0  0  0  0  0  0  0  0  0  0  0  0
  1  2  1  0
  1  8  1  0
  2  3  2  0
  2  4  1  0
  4  5  1  0
  4  7  1  0
  4  9  1  0
  5  6  1  0
  5 10  1  0
  5 11  1  0
  6  7  1  0
  6 12  1  0
  6 13  1  0
  7 14  1  0
  7 15  1  0
M  END
> <intraLJ>
-0.767    

> <intraEL>
-1.743    

> <intraDihe>
17.648    

> <interLJ>
0.000     

> <interEJ>
0.000     

> <gridLJ>
-2.456    

> <gridEL>
0.000     

> <totalE>
12.682    

> <LGFE>
-2.456  

> <LE>
-0.351  

> <SMILES>
O=C(O)C1CCC1

> <atom.dprop.GFE>
-1.1 0 -1.1 -0.017 -0.16 -0.027 0.034 0 0 0 0 0 0 0 0

> <atom.prop.CLASS>
MEOO NCLA GENA PRPC PRPC PRPC PRPC NCLA NCLA NCLA NCLA NCLA NCLA NCLA NCLA

$$$$
