76_2
     RDKit          3D

 23 22  0  0  0  0  0  0  0  0999 V2000
    5.8889  -12.9361   -7.4459 C   0  0  0  0  0  0  0  0  0  0  0  0
    6.3798  -11.8074   -6.5290 C   0  0  0  0  0  0  0  0  0  0  0  0
    5.6003  -11.8778   -5.2066 C   0  0  0  0  0  0  0  0  0  0  0  0
    6.2047  -10.4600   -7.2527 C   0  0  0  0  0  0  0  0  0  0  0  0
    6.7896   -9.2710   -6.4715 C   0  0  0  0  0  0  0  0  0  0  0  0
    6.6558   -7.9874   -7.2873 C   0  0  0  0  0  0  0  0  0  0  0  0
    7.2087   -6.8440   -6.5321 N   0  0  0  0  0  0  0  0  0  0  0  0
    6.0403  -13.9016   -6.9618 H   0  0  0  0  0  0  0  0  0  0  0  0
    6.4503  -12.9317   -8.3819 H   0  0  0  0  0  0  0  0  0  0  0  0
    4.8270  -12.8139   -7.6670 H   0  0  0  0  0  0  0  0  0  0  0  0
    7.4398  -11.9727   -6.3218 H   0  0  0  0  0  0  0  0  0  0  0  0
    4.5444  -11.6601   -5.3752 H   0  0  0  0  0  0  0  0  0  0  0  0
    6.0062  -11.1735   -4.4816 H   0  0  0  0  0  0  0  0  0  0  0  0
    5.6858  -12.8792   -4.7808 H   0  0  0  0  0  0  0  0  0  0  0  0
    5.1407  -10.2909   -7.4346 H   0  0  0  0  0  0  0  0  0  0  0  0
    6.7059  -10.5273   -8.2216 H   0  0  0  0  0  0  0  0  0  0  0  0
    7.8434   -9.4676   -6.2617 H   0  0  0  0  0  0  0  0  0  0  0  0
    6.2516   -9.1562   -5.5286 H   0  0  0  0  0  0  0  0  0  0  0  0
    5.5973   -7.8207   -7.5092 H   0  0  0  0  0  0  0  0  0  0  0  0
    7.1884   -8.1142   -8.2349 H   0  0  0  0  0  0  0  0  0  0  0  0
    6.7115   -6.7340   -5.6586 H   0  0  0  0  0  0  0  0  0  0  0  0
    7.1212   -5.9914   -7.0703 H   0  0  0  0  0  0  0  0  0  0  0  0
    8.1869   -7.0051   -6.3305 H   0  0  0  0  0  0  0  0  0  0  0  0
  1  2  1  0
  1  8  1  0
  1  9  1  0
  1 10  1  0
  2  3  1  0
  2  4  1  0
  2 11  1  0
  3 12  1  0
  3 13  1  0
  3 14  1  0
  4  5  1  0
  4 15  1  0
  4 16  1  0
  5  6  1  0
  5 17  1  0
  5 18  1  0
  6  7  1  0
  6 19  1  0
  6 20  1  0
  7 21  1  0
  7 22  1  0
  7 23  1  0
M  CHG  1   7   1
M  END
> <intraLJ>
-0.485    

> <intraEL>
1.707     

> <intraDihe>
0.145     

> <interLJ>
0.000     

> <interEJ>
0.000     

> <gridLJ>
-2.554    

> <gridEL>
0.000     

> <totalE>
-1.187    

> <LGFE>
-2.554  

> <LE>
-0.365  

> <SMILES>
CC(C)CCC[NH3+]

> <atom.dprop.GFE>
-0.22 -0.16 -0.17 -0.13 -0.088 -0.012 -1.8 0 0 0 0 0 0 0 0 0 0 0 0 0 0 0 0

> <atom.prop.CLASS>
PRPC PRPC PRPC PRPC PRPC PRPC MAMN NCLA NCLA NCLA NCLA NCLA NCLA NCLA NCLA NCLA NCLA NCLA NCLA NCLA NCLA NCLA NCLA

$$$$
