17_1
     RDKit          3D

 15 15  0  0  0  0  0  0  0  0999 V2000
    6.5277   15.1187   -0.3004 N   0  0  0  0  0  0  0  0  0  0  0  0
    7.3418   16.1249    0.0473 C   0  0  0  0  0  0  0  0  0  0  0  0
    6.9388   16.8884    0.8979 O   0  0  0  0  0  0  0  0  0  0  0  0
    8.7107   16.2210   -0.6738 C   0  0  0  0  0  0  0  0  0  0  0  0
    9.0597   15.1356   -1.5966 N   0  0  0  0  0  0  0  0  0  0  0  0
    9.8612   16.8460    0.0445 C   0  0  0  0  0  0  0  0  0  0  0  0
    9.1681   17.5797   -1.0897 C   0  0  0  0  0  0  0  0  0  0  0  0
    5.6346   15.0499    0.1531 H   0  0  0  0  0  0  0  0  0  0  0  0
    6.8430   14.4704   -1.0021 H   0  0  0  0  0  0  0  0  0  0  0  0
    9.2214   14.2881   -1.0449 H   0  0  0  0  0  0  0  0  0  0  0  0
    9.9510   15.3693   -2.0415 H   0  0  0  0  0  0  0  0  0  0  0  0
   10.8457   16.4490   -0.1608 H   0  0  0  0  0  0  0  0  0  0  0  0
    9.6669   17.2141    1.0440 H   0  0  0  0  0  0  0  0  0  0  0  0
    8.5334   18.4089   -0.8074 H   0  0  0  0  0  0  0  0  0  0  0  0
    9.6986   17.6492   -2.0292 H   0  0  0  0  0  0  0  0  0  0  0  0
  1  2  1  0
  1  8  1  0
  1  9  1  0
  2  3  2  0
  2  4  1  0
  4  5  1  0
  4  6  1  0
  4  7  1  0
  5 10  1  0
  5 11  1  0
  6  7  1  0
  6 12  1  0
  6 13  1  0
  7 14  1  0
  7 15  1  0
M  END
> <intraLJ>
3.009     

> <intraEL>
0.473     

> <intraDihe>
8.471     

> <interLJ>
0.000     

> <interEJ>
0.000     

> <gridLJ>
-2.259    

> <gridEL>
0.000     

> <totalE>
9.693     

> <LGFE>
-2.259  

> <LE>
-0.323  

> <SMILES>
NC(=O)C1(N)CC1

> <atom.dprop.GFE>
-0.72 0 -0.46 -0.25 -0.46 -0.21 -0.17 0 0 0 0 0 0 0 0

> <atom.prop.CLASS>
GEND NCLA GENA PRPC GEND PRPC PRPC NCLA NCLA NCLA NCLA NCLA NCLA NCLA NCLA

$$$$
