55
     RDKit          3D

  7  7  0  0  0  0  0  0  0  0999 V2000
  -22.4174    3.3476   23.2322 C   0  0  0  0  0  0  0  0  0  0  0  0
  -23.0177    2.6292   22.3619 N   0  0  0  0  0  0  0  0  0  0  0  0
  -22.3889    1.4106   22.3868 N   0  0  0  0  0  0  0  0  0  0  0  0
  -21.4699    1.5122   23.2702 C   0  0  0  0  0  0  0  0  0  0  0  0
  -21.4502    2.6964   23.8203 O   0  0  0  0  0  0  0  0  0  0  0  0
  -22.6199    4.3544   23.4998 H   0  0  0  0  0  0  0  0  0  0  0  0
  -20.7724    0.7734   23.5745 H   0  0  0  0  0  0  0  0  0  0  0  0
  1  2  2  0
  1  5  1  0
  1  6  1  0
  2  3  1  0
  3  4  2  0
  4  5  1  0
  4  7  1  0
M  END
> <intraLJ>
-0.193    

> <intraEL>
-0.061    

> <intraDihe>
0.000     

> <interLJ>
0.000     

> <interEJ>
0.000     

> <gridLJ>
-5.635    

> <gridEL>
0.000     

> <totalE>
-5.889    

> <LGFE>
-5.635  

> <LE>
-1.127  

> <SMILES>
c1nnco1

> <atom.dprop.GFE>
-0.3 -1.9 -1.4 -0.33 -1.7 0 0

> <atom.prop.CLASS>
GEHC GENA GENA GEHC GENA NCLA NCLA

$$$$
