32
     RDKit          3D

 17 16  0  0  0  0  0  0  0  0999 V2000
  -20.5461    5.2666   -8.0597 C   0  0  0  0  0  0  0  0  0  0  0  0
  -21.8685    5.2149   -7.2984 C   0  0  0  0  0  0  0  0  0  0  0  0
  -23.0025    5.8006   -8.1378 C   0  0  0  0  0  0  0  0  0  0  0  0
  -21.7059    6.0796   -6.1461 N   0  0  0  0  0  0  0  0  0  0  0  0
  -21.5843    5.6651   -4.8712 C   0  0  0  0  0  0  0  0  0  0  0  0
  -21.3393    4.5067   -4.6051 O   0  0  0  0  0  0  0  0  0  0  0  0
  -21.7579    6.5691   -3.9057 N   0  0  0  0  0  0  0  0  0  0  0  0
  -20.6142    4.6494   -8.9551 H   0  0  0  0  0  0  0  0  0  0  0  0
  -19.7459    4.8826   -7.4258 H   0  0  0  0  0  0  0  0  0  0  0  0
  -20.3127    6.2913   -8.3493 H   0  0  0  0  0  0  0  0  0  0  0  0
  -22.0952    4.1786   -7.0429 H   0  0  0  0  0  0  0  0  0  0  0  0
  -22.7794    6.8317   -8.4123 H   0  0  0  0  0  0  0  0  0  0  0  0
  -23.9296    5.7782   -7.5646 H   0  0  0  0  0  0  0  0  0  0  0  0
  -23.1334    5.2086   -9.0428 H   0  0  0  0  0  0  0  0  0  0  0  0
  -22.1253    7.0133   -6.2158 H   0  0  0  0  0  0  0  0  0  0  0  0
  -21.8601    6.1789   -2.9625 H   0  0  0  0  0  0  0  0  0  0  0  0
  -22.2582    7.4240   -4.1525 H   0  0  0  0  0  0  0  0  0  0  0  0
  1  2  1  0
  1  8  1  0
  1  9  1  0
  1 10  1  0
  2  3  1  0
  2  4  1  0
  2 11  1  0
  3 12  1  0
  3 13  1  0
  3 14  1  0
  4  5  1  0
  4 15  1  0
  5  6  2  0
  5  7  1  0
  7 16  1  0
  7 17  1  0
M  END
> <intraLJ>
-0.725    

> <intraEL>
-9.447    

> <intraDihe>
5.509     

> <interLJ>
0.000     

> <interEJ>
0.000     

> <gridLJ>
-3.601    

> <gridEL>
0.000     

> <totalE>
-8.265    

> <LGFE>
-3.601  

> <LE>
-0.514  

> <SMILES>
CC(C)NC(N)=O

> <atom.dprop.GFE>
-0.38 -0.27 -0.36 -0.81 0 -1.2 -0.55 0 0 0 0 0 0 0 0 0 0

> <atom.prop.CLASS>
PRPC PRPC PRPC GEND NCLA GENA GEND NCLA NCLA NCLA NCLA NCLA NCLA NCLA NCLA NCLA NCLA

$$$$
