4
     RDKit          3D

 13 13  0  0  0  0  0  0  0  0999 V2000
  -24.0537    9.9791   13.3473 O   0  0  0  0  0  0  0  0  0  0  0  0
  -23.6599    8.9772   12.3913 C   0  0  0  0  0  0  0  0  0  0  0  0
  -24.9566    8.6465   11.6359 C   0  0  0  0  0  0  0  0  0  0  0  0
  -25.8585    7.6344   12.2792 C   0  0  0  0  0  0  0  0  0  0  0  0
  -25.0465    7.2644   11.0590 C   0  0  0  0  0  0  0  0  0  0  0  0
  -23.3003   10.2396   13.9011 H   0  0  0  0  0  0  0  0  0  0  0  0
  -23.2927    8.0999   12.9069 H   0  0  0  0  0  0  0  0  0  0  0  0
  -22.9454    9.3969   11.6943 H   0  0  0  0  0  0  0  0  0  0  0  0
  -25.4060    9.4704   11.0963 H   0  0  0  0  0  0  0  0  0  0  0  0
  -26.9208    7.7809   12.1328 H   0  0  0  0  0  0  0  0  0  0  0  0
  -25.5385    7.2231   13.2280 H   0  0  0  0  0  0  0  0  0  0  0  0
  -24.2084    6.5994   11.2197 H   0  0  0  0  0  0  0  0  0  0  0  0
  -25.5928    7.1652   10.1296 H   0  0  0  0  0  0  0  0  0  0  0  0
  1  2  1  0
  1  6  1  0
  2  3  1  0
  2  7  1  0
  2  8  1  0
  3  4  1  0
  3  5  1  0
  3  9  1  0
  4  5  1  0
  4 10  1  0
  4 11  1  0
  5 12  1  0
  5 13  1  0
M  END
> <intraLJ>
-0.263    

> <intraEL>
1.550     

> <intraDihe>
2.184     

> <interLJ>
0.000     

> <interEJ>
0.000     

> <gridLJ>
-2.600    

> <gridEL>
0.000     

> <totalE>
0.871     

> <LGFE>
-2.600  

> <LE>
-0.520  

> <SMILES>
OCC1CC1

> <atom.dprop.GFE>
-0.59 -0.58 -0.48 -0.47 -0.48 0 0 0 0 0 0 0 0

> <atom.prop.CLASS>
MEOO PRPC PRPC PRPC PRPC NCLA NCLA NCLA NCLA NCLA NCLA NCLA NCLA

$$$$
