78_1
     RDKit          3D

 13 12  0  0  0  0  0  0  0  0999 V2000
  -39.1985    5.2160   19.3858 C   0  0  0  0  0  0  0  0  0  0  0  0
  -40.0715    6.4884   19.3785 C   0  0  0  0  0  0  0  0  0  0  0  0
  -39.4134    7.5009   20.2887 C   0  0  0  0  0  0  0  0  0  0  0  0
  -40.0098    8.1291   21.1847 N   0  0  0  0  0  0  0  0  0  0  0  0
  -38.0926    7.7448   20.1423 N   0  0  0  0  0  0  0  0  0  0  0  0
  -39.6822    4.4666   18.7597 H   0  0  0  0  0  0  0  0  0  0  0  0
  -39.1250    4.8542   20.4142 H   0  0  0  0  0  0  0  0  0  0  0  0
  -38.2088    5.4523   18.9942 H   0  0  0  0  0  0  0  0  0  0  0  0
  -41.0455    6.2489   19.7830 H   0  0  0  0  0  0  0  0  0  0  0  0
  -40.1229    6.8912   18.3780 H   0  0  0  0  0  0  0  0  0  0  0  0
  -39.4042    8.7574   21.6644 H   0  0  0  0  0  0  0  0  0  0  0  0
  -37.6092    8.1822   20.9333 H   0  0  0  0  0  0  0  0  0  0  0  0
  -37.5649    7.0826   19.5638 H   0  0  0  0  0  0  0  0  0  0  0  0
  1  2  1  0
  1  6  1  0
  1  7  1  0
  1  8  1  0
  2  3  1  0
  2  9  1  0
  2 10  1  0
  3  4  2  0
  3  5  1  0
  4 11  1  0
  5 12  1  0
  5 13  1  0
M  END
> <intraLJ>
1.916     

> <intraEL>
-9.552    

> <intraDihe>
7.124     

> <interLJ>
0.000     

> <interEJ>
0.000     

> <gridLJ>
-2.775    

> <gridEL>
0.000     

> <totalE>
-3.287    

> <LGFE>
-2.775  

> <LE>
-0.555  

> <SMILES>
CCC(=N)N

> <atom.dprop.GFE>
-0.57 -0.61 0 -0.75 -0.84 0 0 0 0 0 0 0 0

> <atom.prop.CLASS>
PRPC PRPC NCLA GENA GEND NCLA NCLA NCLA NCLA NCLA NCLA NCLA NCLA

$$$$
