63
     RDKit          3D

 11 11  0  0  0  0  0  0  0  0999 V2000
   19.9523   -3.2224   -4.8834 O   0  0  0  0  0  0  0  0  0  0  0  0
   18.9939   -3.8338   -5.2965 C   0  0  0  0  0  0  0  0  0  0  0  0
   17.9532   -4.6263   -4.5286 C   0  0  0  0  0  0  0  0  0  0  0  0
   17.1281   -5.0733   -5.6638 N   0  0  0  0  0  0  0  0  0  0  0  0
   17.6014   -4.6254   -6.8439 C   0  0  0  0  0  0  0  0  0  0  0  0
   17.1194   -4.8402   -7.9365 O   0  0  0  0  0  0  0  0  0  0  0  0
   18.7102   -3.8904   -6.6116 N   0  0  0  0  0  0  0  0  0  0  0  0
   17.4003   -3.9615   -3.8804 H   0  0  0  0  0  0  0  0  0  0  0  0
   18.4301   -5.4635   -4.0364 H   0  0  0  0  0  0  0  0  0  0  0  0
   16.2804   -5.6566   -5.6348 H   0  0  0  0  0  0  0  0  0  0  0  0
   19.2599   -3.4384   -7.3456 H   0  0  0  0  0  0  0  0  0  0  0  0
  1  2  2  0
  2  3  1  0
  2  7  1  0
  3  4  1  0
  3  8  1  0
  3  9  1  0
  4  5  1  0
  4 10  1  0
  5  6  2  0
  5  7  1  0
  7 11  1  0
M  END
> <intraLJ>
-0.609    

> <intraEL>
-7.501    

> <intraDihe>
0.000     

> <interLJ>
0.000     

> <interEJ>
0.000     

> <gridLJ>
-2.799    

> <gridEL>
0.000     

> <totalE>
-10.909   

> <LGFE>
-2.799  

> <LE>
-0.400  

> <SMILES>
O=C1CNC(=O)N1

> <atom.dprop.GFE>
-0.33 -0.063 -0.16 -0.43 -0.22 -1.1 -0.53 0 0 0 0

> <atom.prop.CLASS>
GENA GEHC PRPC GEND GEHC GENA GEND NCLA NCLA NCLA NCLA

$$$$
