20_2
     RDKit          3D

 18 18  0  0  0  0  0  0  0  0999 V2000
  -17.8629  -21.3475    4.3417 N   0  0  0  0  0  0  0  0  0  0  0  0
  -18.6537  -22.3883    5.0085 C   0  0  0  0  0  0  0  0  0  0  0  0
  -20.0911  -22.4216    4.5055 C   0  0  0  0  0  0  0  0  0  0  0  0
  -20.8376  -23.1899    5.5994 C   0  0  0  0  0  0  0  0  0  0  0  0
  -20.0492  -22.9464    6.8927 C   0  0  0  0  0  0  0  0  0  0  0  0
  -18.8308  -22.1060    6.4946 C   0  0  0  0  0  0  0  0  0  0  0  0
  -17.8077  -21.5425    3.3516 H   0  0  0  0  0  0  0  0  0  0  0  0
  -16.9320  -21.3223    4.7333 H   0  0  0  0  0  0  0  0  0  0  0  0
  -18.3073  -20.4525    4.4805 H   0  0  0  0  0  0  0  0  0  0  0  0
  -18.2077  -23.3801    4.8820 H   0  0  0  0  0  0  0  0  0  0  0  0
  -20.1719  -22.9294    3.5430 H   0  0  0  0  0  0  0  0  0  0  0  0
  -20.4984  -21.4107    4.4374 H   0  0  0  0  0  0  0  0  0  0  0  0
  -20.8434  -24.2589    5.3714 H   0  0  0  0  0  0  0  0  0  0  0  0
  -21.8682  -22.8371    5.6917 H   0  0  0  0  0  0  0  0  0  0  0  0
  -19.7304  -23.9032    7.3147 H   0  0  0  0  0  0  0  0  0  0  0  0
  -20.6592  -22.4161    7.6286 H   0  0  0  0  0  0  0  0  0  0  0  0
  -19.0586  -21.0511    6.6607 H   0  0  0  0  0  0  0  0  0  0  0  0
  -17.9490  -22.3963    7.0676 H   0  0  0  0  0  0  0  0  0  0  0  0
  1  2  1  0
  1  7  1  0
  1  8  1  0
  1  9  1  0
  2  3  1  0
  2  6  1  0
  2 10  1  0
  3  4  1  0
  3 11  1  0
  3 12  1  0
  4  5  1  0
  4 13  1  0
  4 14  1  0
  5  6  1  0
  5 15  1  0
  5 16  1  0
  6 17  1  0
  6 18  1  0
M  CHG  1   1   1
M  END
> <intraLJ>
-0.090    

> <intraEL>
1.051     

> <intraDihe>
8.712     

> <interLJ>
0.000     

> <interEJ>
0.000     

> <gridLJ>
-2.261    

> <gridEL>
0.000     

> <totalE>
7.412     

> <LGFE>
-2.261  

> <LE>
-0.377  

> <SMILES>
[NH3+]C1CCCC1

> <atom.dprop.GFE>
-1.8 0.044 -0.12 -0.14 -0.13 -0.11 0 0 0 0 0 0 0 0 0 0 0 0

> <atom.prop.CLASS>
MAMN PRPC PRPC PRPC PRPC PRPC NCLA NCLA NCLA NCLA NCLA NCLA NCLA NCLA NCLA NCLA NCLA NCLA

$$$$
