74_2
     RDKit          3D

 12 12  0  0  0  0  0  0  0  0999 V2000
   10.7758    8.8971  -41.1494 O   0  0  0  0  0  0  0  0  0  0  0  0
   11.6696    8.2065  -41.6401 C   0  0  0  0  0  0  0  0  0  0  0  0
   12.9005    7.8373  -41.0076 C   0  0  0  0  0  0  0  0  0  0  0  0
   13.8128    7.0631  -41.6617 C   0  0  0  0  0  0  0  0  0  0  0  0
   13.5347    6.6173  -42.9876 C   0  0  0  0  0  0  0  0  0  0  0  0
   12.3623    6.9663  -43.5965 C   0  0  0  0  0  0  0  0  0  0  0  0
   11.4507    7.7541  -42.9128 N   0  0  0  0  0  0  0  0  0  0  0  0
   13.0702    8.1863  -40.0229 H   0  0  0  0  0  0  0  0  0  0  0  0
   14.7252    6.7881  -41.1952 H   0  0  0  0  0  0  0  0  0  0  0  0
   14.2467    6.0152  -43.4925 H   0  0  0  0  0  0  0  0  0  0  0  0
   12.0804    6.6764  -44.5791 H   0  0  0  0  0  0  0  0  0  0  0  0
   10.5554    8.0393  -43.3345 H   0  0  0  0  0  0  0  0  0  0  0  0
  1  2  2  0
  2  3  1  0
  2  7  1  0
  3  4  2  0
  3  8  1  0
  4  5  1  0
  4  9  1  0
  5  6  2  0
  5 10  1  0
  6  7  1  0
  6 11  1  0
  7 12  1  0
M  END
> <intraLJ>
7.690     

> <intraEL>
-2.793    

> <intraDihe>
0.000     

> <interLJ>
0.000     

> <interEJ>
0.000     

> <gridLJ>
-2.417    

> <gridEL>
0.000     

> <totalE>
2.480     

> <LGFE>
-2.417  

> <LE>
-0.345  

> <SMILES>
O=c1cccc[nH]1

> <atom.dprop.GFE>
-1.2 -0.068 -0.058 -0.085 -0.15 -0.15 -0.73 0 0 0 0 0

> <atom.prop.CLASS>
GENA GEHC BENC BENC BENC BENC GEND NCLA NCLA NCLA NCLA NCLA

$$$$
