48_1
     RDKit          3D

 17 16  0  0  1  0  0  0  0  0999 V2000
  -38.3923    5.8065   29.7428 C   0  0  0  0  0  0  0  0  0  0  0  0
  -39.1550    5.3917   28.4744 C   0  0  0  0  0  0  0  0  0  0  0  0
  -40.3273    4.4325   28.7475 C   0  0  0  0  0  0  0  0  0  0  0  0
  -39.8093    3.1999   29.4072 N   0  0  0  0  0  0  0  0  0  0  0  0
  -41.1538    4.1297   27.4606 C   0  0  0  0  0  0  0  0  0  0  0  0
  -41.4597    2.9964   27.1188 O   0  0  0  0  0  0  0  0  0  0  0  0
  -41.5893    5.1469   26.7315 N   0  0  0  0  0  0  0  0  0  0  0  0
  -37.5963    6.5033   29.4802 H   0  0  0  0  0  0  0  0  0  0  0  0
  -37.9503    4.9303   30.2194 H   0  0  0  0  0  0  0  0  0  0  0  0
  -39.0723    6.2887   30.4455 H   0  0  0  0  0  0  0  0  0  0  0  0
  -38.4635    4.9180   27.7751 H   0  0  0  0  0  0  0  0  0  0  0  0
  -39.5478    6.2909   27.9967 H   0  0  0  0  0  0  0  0  0  0  0  0
  -41.0112    4.9499   29.4228 H   0  0  0  0  0  0  0  0  0  0  0  0
  -39.0120    2.8690   28.8791 H   0  0  0  0  0  0  0  0  0  0  0  0
  -40.5167    2.4790   29.3951 H   0  0  0  0  0  0  0  0  0  0  0  0
  -42.1406    4.9144   25.9220 H   0  0  0  0  0  0  0  0  0  0  0  0
  -41.3711    6.0939   26.9848 H   0  0  0  0  0  0  0  0  0  0  0  0
  1  2  1  0
  1  8  1  0
  1  9  1  0
  1 10  1  0
  2  3  1  0
  2 11  1  0
  2 12  1  0
  3  4  1  0
  3  5  1  0
  3 13  1  0
  4 14  1  0
  4 15  1  0
  5  6  2  0
  5  7  1  0
  7 16  1  0
  7 17  1  0
M  END
> <intraLJ>
0.871     

> <intraEL>
5.314     

> <intraDihe>
0.813     

> <interLJ>
0.000     

> <interEJ>
0.000     

> <gridLJ>
-2.003    

> <gridEL>
0.000     

> <totalE>
4.994     

> <LGFE>
-2.003  

> <LE>
-0.286  

> <SMILES>
CCC(N)C(N)=O

> <atom.dprop.GFE>
-0.22 -0.39 -0.35 -0.31 0 -0.57 -0.17 0 0 0 0 0 0 0 0 0 0

> <atom.prop.CLASS>
PRPC PRPC PRPC GEND NCLA GENA GEND NCLA NCLA NCLA NCLA NCLA NCLA NCLA NCLA NCLA NCLA

$$$$
