26_1
     RDKit          3D

 13 13  0  0  0  0  0  0  0  0999 V2000
   17.4026    4.9262  -50.4637 O   0  0  0  0  0  0  0  0  0  0  0  0
   17.3985    4.2008  -49.2250 C   0  0  0  0  0  0  0  0  0  0  0  0
   18.7533    3.5044  -49.1868 C   0  0  0  0  0  0  0  0  0  0  0  0
   18.9572    2.1330  -49.2996 C   0  0  0  0  0  0  0  0  0  0  0  0
   20.2896    1.9241  -49.2161 C   0  0  0  0  0  0  0  0  0  0  0  0
   20.8405    3.1451  -49.0598 N   0  0  0  0  0  0  0  0  0  0  0  0
   19.9017    4.1279  -49.0396 N   0  0  0  0  0  0  0  0  0  0  0  0
   18.2794    4.7284  -50.8642 H   0  0  0  0  0  0  0  0  0  0  0  0
   16.6146    3.4565  -49.2421 H   0  0  0  0  0  0  0  0  0  0  0  0
   17.3300    4.8942  -48.3975 H   0  0  0  0  0  0  0  0  0  0  0  0
   18.2130    1.3891  -49.4263 H   0  0  0  0  0  0  0  0  0  0  0  0
   20.8686    1.0378  -49.2547 H   0  0  0  0  0  0  0  0  0  0  0  0
   21.8565    3.3350  -48.9637 H   0  0  0  0  0  0  0  0  0  0  0  0
  1  2  1  0
  1  8  1  0
  2  3  1  0
  2  9  1  0
  2 10  1  0
  3  4  1  0
  3  7  2  0
  4  5  2  0
  4 11  1  0
  5  6  1  0
  5 12  1  0
  6  7  1  0
  6 13  1  0
M  END
> <intraLJ>
0.297     

> <intraEL>
0.180     

> <intraDihe>
6.110     

> <interLJ>
0.000     

> <interEJ>
0.000     

> <gridLJ>
-2.227    

> <gridEL>
0.000     

> <totalE>
4.360     

> <LGFE>
-2.227  

> <LE>
-0.318  

> <SMILES>
OCc1cc[nH]n1

> <atom.dprop.GFE>
-0.14 -0.35 -0.21 -0.2 -0.11 -0.62 -0.6 0 0 0 0 0 0

> <atom.prop.CLASS>
MEOO PRPC GEHC GEHC GEHC GEND GENA NCLA NCLA NCLA NCLA NCLA NCLA

$$$$
