53
     RDKit          3D

 16 16  0  0  0  0  0  0  0  0999 V2000
   21.1081   -3.2528  -26.6988 O   0  0  0  0  0  0  0  0  0  0  0  0
   20.1938   -4.0373  -26.8930 C   0  0  0  0  0  0  0  0  0  0  0  0
   18.8357   -3.8889  -26.2110 C   0  0  0  0  0  0  0  0  0  0  0  0
   18.3110   -5.2421  -25.6757 C   0  0  0  0  0  0  0  0  0  0  0  0
   18.6677   -6.4419  -26.5921 C   0  0  0  0  0  0  0  0  0  0  0  0
   19.2505   -6.0073  -27.9450 C   0  0  0  0  0  0  0  0  0  0  0  0
   20.3519   -5.0973  -27.6757 N   0  0  0  0  0  0  0  0  0  0  0  0
   18.1359   -3.4995  -26.9496 H   0  0  0  0  0  0  0  0  0  0  0  0
   18.9194   -3.1717  -25.3938 H   0  0  0  0  0  0  0  0  0  0  0  0
   17.2280   -5.1785  -25.5554 H   0  0  0  0  0  0  0  0  0  0  0  0
   18.7485   -5.4211  -24.6911 H   0  0  0  0  0  0  0  0  0  0  0  0
   17.7805   -7.0541  -26.7599 H   0  0  0  0  0  0  0  0  0  0  0  0
   19.4122   -7.0580  -26.0853 H   0  0  0  0  0  0  0  0  0  0  0  0
   18.4826   -5.5056  -28.5375 H   0  0  0  0  0  0  0  0  0  0  0  0
   19.6065   -6.8837  -28.4909 H   0  0  0  0  0  0  0  0  0  0  0  0
   21.2538   -5.2222  -28.1051 H   0  0  0  0  0  0  0  0  0  0  0  0
  1  2  2  0
  2  3  1  0
  2  7  1  0
  3  4  1  0
  3  8  1  0
  3  9  1  0
  4  5  1  0
  4 10  1  0
  4 11  1  0
  5  6  1  0
  5 12  1  0
  5 13  1  0
  6  7  1  0
  6 14  1  0
  6 15  1  0
  7 16  1  0
M  END
> <intraLJ>
0.344     

> <intraEL>
-2.405    

> <intraDihe>
10.947    

> <interLJ>
0.000     

> <interEJ>
0.000     

> <gridLJ>
-2.651    

> <gridEL>
0.000     

> <totalE>
6.234     

> <LGFE>
-2.651  

> <LE>
-0.379  

> <SMILES>
O=C1CCCCN1

> <atom.dprop.GFE>
-1.5 0 -0.043 -0.31 -0.3 -0.086 -0.44 0 0 0 0 0 0 0 0 0

> <atom.prop.CLASS>
GENA NCLA PRPC PRPC PRPC PRPC GEND NCLA NCLA NCLA NCLA NCLA NCLA NCLA NCLA NCLA

$$$$
