34
     RDKit          3D

 19 19  0  0  0  0  0  0  0  0999 V2000
   -5.4645   -7.4681    2.3814 O   0  0  0  0  0  0  0  0  0  0  0  0
   -5.1453   -8.7842    2.7671 C   0  0  0  0  0  0  0  0  0  0  0  0
   -4.1149   -8.7329    3.9006 C   0  0  0  0  0  0  0  0  0  0  0  0
   -3.6414  -10.1452    4.2837 C   0  0  0  0  0  0  0  0  0  0  0  0
   -3.0843  -10.8879    3.0604 C   0  0  0  0  0  0  0  0  0  0  0  0
   -4.1158  -10.9374    1.9231 C   0  0  0  0  0  0  0  0  0  0  0  0
   -4.5832   -9.5227    1.5486 C   0  0  0  0  0  0  0  0  0  0  0  0
   -5.8170   -7.0008    3.1416 H   0  0  0  0  0  0  0  0  0  0  0  0
   -6.0446   -9.2985    3.1135 H   0  0  0  0  0  0  0  0  0  0  0  0
   -4.5581   -8.2536    4.7740 H   0  0  0  0  0  0  0  0  0  0  0  0
   -3.2573   -8.1429    3.5749 H   0  0  0  0  0  0  0  0  0  0  0  0
   -4.4812  -10.7093    4.6957 H   0  0  0  0  0  0  0  0  0  0  0  0
   -2.8665  -10.0730    5.0476 H   0  0  0  0  0  0  0  0  0  0  0  0
   -2.8099  -11.9047    3.3469 H   0  0  0  0  0  0  0  0  0  0  0  0
   -2.1860  -10.3772    2.7081 H   0  0  0  0  0  0  0  0  0  0  0  0
   -4.9758  -11.5319    2.2390 H   0  0  0  0  0  0  0  0  0  0  0  0
   -3.6693  -11.4142    1.0488 H   0  0  0  0  0  0  0  0  0  0  0  0
   -3.7410   -8.9562    1.1473 H   0  0  0  0  0  0  0  0  0  0  0  0
   -5.3555   -9.5842    0.7814 H   0  0  0  0  0  0  0  0  0  0  0  0
  1  2  1  0
  1  8  1  0
  2  3  1  0
  2  7  1  0
  2  9  1  0
  3  4  1  0
  3 10  1  0
  3 11  1  0
  4  5  1  0
  4 12  1  0
  4 13  1  0
  5  6  1  0
  5 14  1  0
  5 15  1  0
  6  7  1  0
  6 16  1  0
  6 17  1  0
  7 18  1  0
  7 19  1  0
M  END
> <intraLJ>
-0.471    

> <intraEL>
-1.198    

> <intraDihe>
8.631     

> <interLJ>
0.000     

> <interEJ>
0.000     

> <gridLJ>
-2.035    

> <gridEL>
0.000     

> <totalE>
4.927     

> <LGFE>
-2.035  

> <LE>
-0.291  

> <SMILES>
OC1CCCCC1

> <atom.dprop.GFE>
-1.2 -0.21 -0.13 -0.033 -0.12 -0.21 -0.11 0 0 0 0 0 0 0 0 0 0 0 0

> <atom.prop.CLASS>
MEOO PRPC PRPC PRPC PRPC PRPC PRPC NCLA NCLA NCLA NCLA NCLA NCLA NCLA NCLA NCLA NCLA NCLA NCLA

$$$$
