81_2
     RDKit          3D

 19 19  0  0  1  0  0  0  0  0999 V2000
  -23.3922   10.1989   16.4700 N   0  0  0  0  0  0  0  0  0  0  0  0
  -24.0474    9.9996   15.1530 C   0  0  0  0  0  0  0  0  0  0  0  0
  -23.6910    8.6100   14.6013 C   0  0  0  0  0  0  0  0  0  0  0  0
  -22.2096    8.4060   14.3005 C   0  0  0  0  0  0  0  0  0  0  0  0
  -22.2425    7.3463   13.1981 C   0  0  0  0  0  0  0  0  0  0  0  0
  -23.6869    7.3570   12.6918 C   0  0  0  0  0  0  0  0  0  0  0  0
  -24.3088    8.4591   13.3359 O   0  0  0  0  0  0  0  0  0  0  0  0
  -23.7040   11.0395   16.9315 H   0  0  0  0  0  0  0  0  0  0  0  0
  -22.3876   10.1877   16.3714 H   0  0  0  0  0  0  0  0  0  0  0  0
  -23.6327    9.3721   17.0149 H   0  0  0  0  0  0  0  0  0  0  0  0
  -25.1319   10.0315   15.2838 H   0  0  0  0  0  0  0  0  0  0  0  0
  -23.7593   10.7711   14.4345 H   0  0  0  0  0  0  0  0  0  0  0  0
  -24.0457    7.8288   15.2773 H   0  0  0  0  0  0  0  0  0  0  0  0
  -21.7671    9.3253   13.9104 H   0  0  0  0  0  0  0  0  0  0  0  0
  -21.6615    8.0552   15.1770 H   0  0  0  0  0  0  0  0  0  0  0  0
  -22.0001    6.3605   13.6003 H   0  0  0  0  0  0  0  0  0  0  0  0
  -21.5488    7.6012   12.3943 H   0  0  0  0  0  0  0  0  0  0  0  0
  -24.1835    6.4281   12.9797 H   0  0  0  0  0  0  0  0  0  0  0  0
  -23.7218    7.4686   11.6058 H   0  0  0  0  0  0  0  0  0  0  0  0
  1  2  1  0
  1  8  1  0
  1  9  1  0
  1 10  1  0
  2  3  1  0
  2 11  1  0
  2 12  1  0
  3  4  1  0
  3  7  1  0
  3 13  1  0
  4  5  1  0
  4 14  1  0
  4 15  1  0
  5  6  1  0
  5 16  1  0
  5 17  1  0
  6  7  1  0
  6 18  1  0
  6 19  1  0
M  CHG  1   1   1
M  END
> <intraLJ>
-0.745    

> <intraEL>
2.670     

> <intraDihe>
7.603     

> <interLJ>
0.000     

> <interEJ>
0.000     

> <gridLJ>
-4.042    

> <gridEL>
0.000     

> <totalE>
5.485     

> <LGFE>
-4.042  

> <LE>
-0.577  

> <SMILES>
[NH3+]CC1CCCO1

> <atom.dprop.GFE>
-1.2 -0.11 -0.25 -0.39 -0.39 -0.59 -1.1 0 0 0 0 0 0 0 0 0 0 0 0

> <atom.prop.CLASS>
MAMN PRPC PRPC PRPC PRPC PRPC GENA NCLA NCLA NCLA NCLA NCLA NCLA NCLA NCLA NCLA NCLA NCLA NCLA

$$$$
