39_1
     RDKit          3D

 11 11  0  0  0  0  0  0  0  0999 V2000
   21.1203   -3.7226  -26.7964 O   0  0  0  0  0  0  0  0  0  0  0  0
   22.1267   -3.1893  -27.2694 C   0  0  0  0  0  0  0  0  0  0  0  0
   22.1623   -2.2002  -28.2976 C   0  0  0  0  0  0  0  0  0  0  0  0
   23.3660   -1.7063  -28.7140 C   0  0  0  0  0  0  0  0  0  0  0  0
   24.5746   -2.1806  -28.1224 C   0  0  0  0  0  0  0  0  0  0  0  0
   24.5603   -3.0797  -27.1850 N   0  0  0  0  0  0  0  0  0  0  0  0
   23.3475   -3.5795  -26.7623 N   0  0  0  0  0  0  0  0  0  0  0  0
   21.2443   -1.8749  -28.7116 H   0  0  0  0  0  0  0  0  0  0  0  0
   23.4194   -0.9721  -29.4759 H   0  0  0  0  0  0  0  0  0  0  0  0
   25.5060   -1.7949  -28.4492 H   0  0  0  0  0  0  0  0  0  0  0  0
   23.3212   -4.2968  -26.0171 H   0  0  0  0  0  0  0  0  0  0  0  0
  1  2  2  0
  2  3  1  0
  2  7  1  0
  3  4  2  0
  3  8  1  0
  4  5  1  0
  4  9  1  0
  5  6  2  0
  5 10  1  0
  6  7  1  0
  7 11  1  0
M  END
> <intraLJ>
10.206    

> <intraEL>
-0.642    

> <intraDihe>
0.000     

> <interLJ>
0.000     

> <interEJ>
0.000     

> <gridLJ>
-2.665    

> <gridEL>
0.000     

> <totalE>
6.900     

> <LGFE>
-2.665  

> <LE>
-0.381  

> <SMILES>
O=c1cccn[nH]1

> <atom.dprop.GFE>
-1.5 -0.25 -0.091 -0.043 -0.013 -0.16 -0.63 0 0 0 0

> <atom.prop.CLASS>
GENA GEHC BENC BENC BENC GENA GEND NCLA NCLA NCLA NCLA

$$$$
