11_3
     RDKit          3D

 11 11  0  0  0  0  0  0  0  0999 V2000
  -23.9503    2.5833    4.5814 O   0  0  0  0  0  0  0  0  0  0  0  0
  -23.9035    3.5572    3.6778 C   0  0  0  0  0  0  0  0  0  0  0  0
  -25.0602    3.9091    2.8098 C   0  0  0  0  0  0  0  0  0  0  0  0
  -24.4024    5.0575    2.0322 C   0  0  0  0  0  0  0  0  0  0  0  0
  -23.0441    5.1328    2.5813 O   0  0  0  0  0  0  0  0  0  0  0  0
  -22.8458    4.2045    3.5537 N   0  0  0  0  0  0  0  0  0  0  0  0
  -23.0516    2.6200    4.9622 H   0  0  0  0  0  0  0  0  0  0  0  0
  -25.8772    4.2655    3.4184 H   0  0  0  0  0  0  0  0  0  0  0  0
  -25.2930    3.0782    2.1603 H   0  0  0  0  0  0  0  0  0  0  0  0
  -24.9268    5.9970    2.2076 H   0  0  0  0  0  0  0  0  0  0  0  0
  -24.3601    4.8319    0.9661 H   0  0  0  0  0  0  0  0  0  0  0  0
  1  2  1  0
  1  7  1  0
  2  3  1  0
  2  6  2  0
  3  4  1  0
  3  8  1  0
  3  9  1  0
  4  5  1  0
  4 10  1  0
  4 11  1  0
  5  6  1  0
M  END
> <intraLJ>
-0.718    

> <intraEL>
-4.916    

> <intraDihe>
22.322    

> <interLJ>
0.000     

> <interEJ>
0.000     

> <gridLJ>
-4.936    

> <gridEL>
0.000     

> <totalE>
11.753    

> <LGFE>
-4.936  

> <LE>
-0.823  

> <SMILES>
OC1=NOCC1

> <atom.dprop.GFE>
-1.1 -0.29 -0.41 -0.36 -1.4 -1.4 0 0 0 0 0

> <atom.prop.CLASS>
MEOO GEHC PRPC PRPC GENA GENA NCLA NCLA NCLA NCLA NCLA

$$$$
