37_1
     RDKit          3D

 12 11  0  0  1  0  0  0  0  0999 V2000
   18.8213   15.7576  -33.6913 C   0  0  0  0  0  0  0  0  0  0  0  0
   17.9203   14.6923  -33.0459 C   0  0  0  0  0  0  0  0  0  0  0  0
   18.7975   13.5737  -32.7174 O   0  0  0  0  0  0  0  0  0  0  0  0
   16.8608   14.2455  -34.0632 C   0  0  0  0  0  0  0  0  0  0  0  0
   16.8159   13.1444  -34.5998 O   0  0  0  0  0  0  0  0  0  0  0  0
   15.9233   15.1117  -34.4956 O   0  0  0  0  0  0  0  0  0  0  0  0
   18.2048   16.6183  -33.9528 H   0  0  0  0  0  0  0  0  0  0  0  0
   19.2890   15.3345  -34.5809 H   0  0  0  0  0  0  0  0  0  0  0  0
   19.5808   16.0425  -32.9628 H   0  0  0  0  0  0  0  0  0  0  0  0
   17.4405   15.0890  -32.1602 H   0  0  0  0  0  0  0  0  0  0  0  0
   18.9772   13.0571  -33.5257 H   0  0  0  0  0  0  0  0  0  0  0  0
   15.4119   14.5974  -35.1223 H   0  0  0  0  0  0  0  0  0  0  0  0
  1  2  1  0
  1  7  1  0
  1  8  1  0
  1  9  1  0
  2  3  1  0
  2  4  1  0
  2 10  1  0
  3 11  1  0
  4  5  2  0
  4  6  1  0
  6 12  1  0
M  END
> <intraLJ>
-0.213    

> <intraEL>
3.061     

> <intraDihe>
2.546     

> <interLJ>
0.000     

> <interEJ>
0.000     

> <gridLJ>
-2.330    

> <gridEL>
0.000     

> <totalE>
3.063     

> <LGFE>
-2.330  

> <LE>
-0.388  

> <SMILES>
CC(O)C(=O)O

> <atom.dprop.GFE>
-0.2 -0.29 -0.32 0 -0.63 -0.89 0 0 0 0 0 0

> <atom.prop.CLASS>
PRPC PRPC MEOO NCLA GENA MEOO NCLA NCLA NCLA NCLA NCLA NCLA

$$$$
