15_1
     RDKit          3D

 13 13  0  0  0  0  0  0  0  0999 V2000
   16.4183   -2.5376  -36.6407 N   0  0  0  0  0  0  0  0  0  0  0  0
   17.2094   -2.0913  -35.6333 C   0  0  0  0  0  0  0  0  0  0  0  0
   16.9403   -2.3835  -34.2956 C   0  0  0  0  0  0  0  0  0  0  0  0
   17.7913   -1.8821  -33.3264 C   0  0  0  0  0  0  0  0  0  0  0  0
   18.8726   -1.1130  -33.7454 C   0  0  0  0  0  0  0  0  0  0  0  0
   19.0624   -0.8750  -35.1056 C   0  0  0  0  0  0  0  0  0  0  0  0
   18.2368   -1.3590  -36.0348 N   0  0  0  0  0  0  0  0  0  0  0  0
   16.6304   -2.0400  -37.5145 H   0  0  0  0  0  0  0  0  0  0  0  0
   15.4232   -2.6089  -36.4051 H   0  0  0  0  0  0  0  0  0  0  0  0
   16.1053   -2.9793  -34.0396 H   0  0  0  0  0  0  0  0  0  0  0  0
   17.6273   -2.0787  -32.2972 H   0  0  0  0  0  0  0  0  0  0  0  0
   19.5500   -0.7106  -33.0378 H   0  0  0  0  0  0  0  0  0  0  0  0
   19.8858   -0.2907  -35.4321 H   0  0  0  0  0  0  0  0  0  0  0  0
  1  2  1  0
  1  8  1  0
  1  9  1  0
  2  3  2  0
  2  7  1  0
  3  4  1  0
  3 10  1  0
  4  5  2  0
  4 11  1  0
  5  6  1  0
  5 12  1  0
  6  7  2  0
  6 13  1  0
M  END
> <intraLJ>
13.521    

> <intraEL>
-12.491   

> <intraDihe>
2.164     

> <interLJ>
0.000     

> <interEJ>
0.000     

> <gridLJ>
-2.629    

> <gridEL>
0.000     

> <totalE>
0.564     

> <LGFE>
-2.629  

> <LE>
-0.376  

> <SMILES>
Nc1ccccn1

> <atom.dprop.GFE>
-0.46 -0.06 -0.24 -0.21 -0.19 -0.1 -1.4 0 0 0 0 0 0

> <atom.prop.CLASS>
GEND GEHC BENC BENC BENC GEHC GENA NCLA NCLA NCLA NCLA NCLA NCLA

$$$$
