31_1
     RDKit          3D

 15 15  0  0  0  0  0  0  0  0999 V2000
   17.3618   -4.4114   -7.8677 O   0  0  0  0  0  0  0  0  0  0  0  0
   18.3614   -4.0998   -7.2354 C   0  0  0  0  0  0  0  0  0  0  0  0
   19.7484   -3.9908   -7.9237 C   0  0  0  0  0  0  0  0  0  0  0  0
   20.8170   -3.2882   -7.1337 N   0  0  0  0  0  0  0  0  0  0  0  0
   20.7118   -3.6633   -5.6986 C   0  0  0  0  0  0  0  0  0  0  0  0
   19.3308   -3.2810   -5.1369 C   0  0  0  0  0  0  0  0  0  0  0  0
   18.2729   -3.9223   -5.9169 N   0  0  0  0  0  0  0  0  0  0  0  0
   19.6141   -3.4903   -8.8834 H   0  0  0  0  0  0  0  0  0  0  0  0
   20.0816   -5.0088   -8.1228 H   0  0  0  0  0  0  0  0  0  0  0  0
   20.6937   -2.2874   -7.2317 H   0  0  0  0  0  0  0  0  0  0  0  0
   21.4869   -3.1501   -5.1260 H   0  0  0  0  0  0  0  0  0  0  0  0
   20.8581   -4.7399   -5.5858 H   0  0  0  0  0  0  0  0  0  0  0  0
   19.2143   -2.1970   -5.1809 H   0  0  0  0  0  0  0  0  0  0  0  0
   19.2682   -3.6011   -4.0953 H   0  0  0  0  0  0  0  0  0  0  0  0
   17.3587   -4.0545   -5.5170 H   0  0  0  0  0  0  0  0  0  0  0  0
  1  2  2  0
  2  3  1  0
  2  7  1  0
  3  4  1  0
  3  8  1  0
  3  9  1  0
  4  5  1  0
  4 10  1  0
  5  6  1  0
  5 11  1  0
  5 12  1  0
  6  7  1  0
  6 13  1  0
  6 14  1  0
  7 15  1  0
M  END
> <intraLJ>
0.615     

> <intraEL>
3.232     

> <intraDihe>
15.833    

> <interLJ>
0.000     

> <interEJ>
0.000     

> <gridLJ>
-2.447    

> <gridEL>
0.000     

> <totalE>
17.233    

> <LGFE>
-2.447  

> <LE>
-0.350  

> <SMILES>
O=C1CNCCN1

> <atom.dprop.GFE>
-1.1 0 -0.17 -0.36 -0.14 -0.17 -0.53 0 0 0 0 0 0 0 0

> <atom.prop.CLASS>
GENA NCLA PRPC GEND PRPC PRPC GEND NCLA NCLA NCLA NCLA NCLA NCLA NCLA NCLA

$$$$
