51_1
     RDKit          3D

 12 12  0  0  0  0  0  0  0  0999 V2000
    8.4754   16.2968    0.4072 O   0  0  0  0  0  0  0  0  0  0  0  0
    7.3705   16.6921    0.7346 C   0  0  0  0  0  0  0  0  0  0  0  0
    6.5670   17.8061    0.1475 C   0  0  0  0  0  0  0  0  0  0  0  0
    5.5745   18.0921    1.2992 C   0  0  0  0  0  0  0  0  0  0  0  0
    5.3971   16.8093    2.0141 N   0  0  0  0  0  0  0  0  0  0  0  0
    6.6827   16.1393    1.7294 N   0  0  0  0  0  0  0  0  0  0  0  0
    6.0338   17.4226   -0.7095 H   0  0  0  0  0  0  0  0  0  0  0  0
    7.1945   18.6622   -0.0533 H   0  0  0  0  0  0  0  0  0  0  0  0
    4.6261   18.4765    0.9185 H   0  0  0  0  0  0  0  0  0  0  0  0
    6.0146   18.8202    1.9835 H   0  0  0  0  0  0  0  0  0  0  0  0
    4.6672   16.2915    1.4897 H   0  0  0  0  0  0  0  0  0  0  0  0
    7.0871   15.3719    2.2937 H   0  0  0  0  0  0  0  0  0  0  0  0
  1  2  2  0
  2  3  1  0
  2  6  1  0
  3  4  1  0
  3  7  1  0
  3  8  1  0
  4  5  1  0
  4  9  1  0
  4 10  1  0
  5  6  1  0
  5 11  1  0
  6 12  1  0
M  END
> <intraLJ>
-0.445    

> <intraEL>
-0.094    

> <intraDihe>
6.248     

> <interLJ>
0.000     

> <interEJ>
0.000     

> <gridLJ>
-2.352    

> <gridEL>
0.000     

> <totalE>
3.358     

> <LGFE>
-2.352  

> <LE>
-0.392  

> <SMILES>
O=C1CCNN1

> <atom.dprop.GFE>
-0.6 -0.1 -0.25 -0.23 -0.57 -0.6 0 0 0 0 0 0

> <atom.prop.CLASS>
GENA GEHC PRPC PRPC GEND GEND NCLA NCLA NCLA NCLA NCLA NCLA

$$$$
