51_1
     RDKit          3D

 12 12  0  0  0  0  0  0  0  0999 V2000
  -21.3384    2.2018   23.5006 O   0  0  0  0  0  0  0  0  0  0  0  0
  -20.4853    1.9730   24.3398 C   0  0  0  0  0  0  0  0  0  0  0  0
  -20.5641    1.0709   25.5277 C   0  0  0  0  0  0  0  0  0  0  0  0
  -19.4088    1.6244   26.3951 C   0  0  0  0  0  0  0  0  0  0  0  0
  -18.4187    2.1832   25.4489 N   0  0  0  0  0  0  0  0  0  0  0  0
  -19.2811    2.5360   24.3024 N   0  0  0  0  0  0  0  0  0  0  0  0
  -20.3321    0.0669   25.2053 H   0  0  0  0  0  0  0  0  0  0  0  0
  -21.5170    1.1800   26.0249 H   0  0  0  0  0  0  0  0  0  0  0  0
  -18.9732    0.8425   27.0203 H   0  0  0  0  0  0  0  0  0  0  0  0
  -19.7860    2.4298   27.0285 H   0  0  0  0  0  0  0  0  0  0  0  0
  -17.8323    1.3826   25.1470 H   0  0  0  0  0  0  0  0  0  0  0  0
  -19.0403    3.2292   23.5728 H   0  0  0  0  0  0  0  0  0  0  0  0
  1  2  2  0
  2  3  1  0
  2  6  1  0
  3  4  1  0
  3  7  1  0
  3  8  1  0
  4  5  1  0
  4  9  1  0
  4 10  1  0
  5  6  1  0
  5 11  1  0
  6 12  1  0
M  END
> <intraLJ>
-0.445    

> <intraEL>
-0.094    

> <intraDihe>
6.248     

> <interLJ>
0.000     

> <interEJ>
0.000     

> <gridLJ>
-2.981    

> <gridEL>
0.000     

> <totalE>
2.729     

> <LGFE>
-2.981  

> <LE>
-0.497  

> <SMILES>
O=C1CCNN1

> <atom.dprop.GFE>
-1.7 -0.19 -0.12 -0.17 -0.26 -0.52 0 0 0 0 0 0

> <atom.prop.CLASS>
GENA GEHC PRPC PRPC GEND GEND NCLA NCLA NCLA NCLA NCLA NCLA

$$$$
