20_2
     RDKit          3D

 18 18  0  0  0  0  0  0  0  0999 V2000
  -12.3300  -11.8379   -3.7336 N   0  0  0  0  0  0  0  0  0  0  0  0
  -11.3947  -12.8991   -3.3434 C   0  0  0  0  0  0  0  0  0  0  0  0
  -10.2652  -13.0623   -4.3522 C   0  0  0  0  0  0  0  0  0  0  0  0
   -9.7068  -14.4546   -4.0456 C   0  0  0  0  0  0  0  0  0  0  0  0
  -10.8744  -15.2502   -3.4482 C   0  0  0  0  0  0  0  0  0  0  0  0
  -12.0519  -14.2730   -3.3593 C   0  0  0  0  0  0  0  0  0  0  0  0
  -11.8478  -10.9501   -3.7587 H   0  0  0  0  0  0  0  0  0  0  0  0
  -13.0897  -11.7909   -3.0695 H   0  0  0  0  0  0  0  0  0  0  0  0
  -12.7002  -12.0416   -4.6497 H   0  0  0  0  0  0  0  0  0  0  0  0
  -10.9657  -12.7177   -2.3528 H   0  0  0  0  0  0  0  0  0  0  0  0
   -9.4986  -12.2952   -4.2298 H   0  0  0  0  0  0  0  0  0  0  0  0
  -10.6553  -13.0504   -5.3721 H   0  0  0  0  0  0  0  0  0  0  0  0
   -8.9003  -14.3833   -3.3112 H   0  0  0  0  0  0  0  0  0  0  0  0
   -9.3255  -14.9317   -4.9522 H   0  0  0  0  0  0  0  0  0  0  0  0
  -10.6026  -15.6105   -2.4525 H   0  0  0  0  0  0  0  0  0  0  0  0
  -11.1297  -16.1045   -4.0806 H   0  0  0  0  0  0  0  0  0  0  0  0
  -12.6768  -14.3897   -4.2471 H   0  0  0  0  0  0  0  0  0  0  0  0
  -12.6408  -14.4482   -2.4579 H   0  0  0  0  0  0  0  0  0  0  0  0
  1  2  1  0
  1  7  1  0
  1  8  1  0
  1  9  1  0
  2  3  1  0
  2  6  1  0
  2 10  1  0
  3  4  1  0
  3 11  1  0
  3 12  1  0
  4  5  1  0
  4 13  1  0
  4 14  1  0
  5  6  1  0
  5 15  1  0
  5 16  1  0
  6 17  1  0
  6 18  1  0
M  CHG  1   1   1
M  END
> <intraLJ>
-0.090    

> <intraEL>
1.051     

> <intraDihe>
8.712     

> <interLJ>
0.000     

> <interEJ>
0.000     

> <gridLJ>
-2.628    

> <gridEL>
0.000     

> <totalE>
7.044     

> <LGFE>
-2.628  

> <LE>
-0.438  

> <SMILES>
[NH3+]C1CCCC1

> <atom.dprop.GFE>
-1.8 -0.15 -0.22 -0.21 -0.13 -0.16 0 0 0 0 0 0 0 0 0 0 0 0

> <atom.prop.CLASS>
MAMN PRPC PRPC PRPC PRPC PRPC NCLA NCLA NCLA NCLA NCLA NCLA NCLA NCLA NCLA NCLA NCLA NCLA

$$$$
