51_2
     RDKit          3D

 12 12  0  0  0  0  0  0  0  0999 V2000
    1.9648   -0.5211  -10.5807 O   0  0  0  0  0  0  0  0  0  0  0  0
    3.0943   -1.2133  -10.7613 C   0  0  0  0  0  0  0  0  0  0  0  0
    3.3481   -2.1090  -11.9268 C   0  0  0  0  0  0  0  0  0  0  0  0
    4.6065   -2.8148  -11.3888 C   0  0  0  0  0  0  0  0  0  0  0  0
    5.0534   -1.9065  -10.3221 N   0  0  0  0  0  0  0  0  0  0  0  0
    3.9995   -1.1191   -9.9009 N   0  0  0  0  0  0  0  0  0  0  0  0
    2.1628   -0.0555   -9.7465 H   0  0  0  0  0  0  0  0  0  0  0  0
    3.5900   -1.4976  -12.7840 H   0  0  0  0  0  0  0  0  0  0  0  0
    2.5325   -2.8026  -12.0619 H   0  0  0  0  0  0  0  0  0  0  0  0
    5.3662   -2.9263  -12.1650 H   0  0  0  0  0  0  0  0  0  0  0  0
    4.3411   -3.7834  -10.9611 H   0  0  0  0  0  0  0  0  0  0  0  0
    5.6545   -2.2993   -9.5731 H   0  0  0  0  0  0  0  0  0  0  0  0
  1  2  1  0
  1  7  1  0
  2  3  1  0
  2  6  2  0
  3  4  1  0
  3  8  1  0
  3  9  1  0
  4  5  1  0
  4 10  1  0
  4 11  1  0
  5  6  1  0
  5 12  1  0
M  END
> <intraLJ>
-0.691    

> <intraEL>
-4.206    

> <intraDihe>
21.287    

> <interLJ>
0.000     

> <interEJ>
0.000     

> <gridLJ>
-2.648    

> <gridEL>
0.000     

> <totalE>
13.742    

> <LGFE>
-2.648  

> <LE>
-0.441  

> <SMILES>
OC1=NNCC1

> <atom.dprop.GFE>
-1.1 -0.097 -0.17 -0.17 -0.33 -0.78 0 0 0 0 0 0

> <atom.prop.CLASS>
MEOO GEHC PRPC PRPC GEND GENA NCLA NCLA NCLA NCLA NCLA NCLA

$$$$
