9_2
     RDKit          3D

 13 13  0  0  0  0  0  0  0  0999 V2000
  -19.5145   -7.1145   -3.1215 O   0  0  0  0  0  0  0  0  0  0  0  0
  -20.1419   -8.3146   -3.7091 C   0  0  0  0  0  0  0  0  0  0  0  0
  -19.1663   -9.5269   -3.7169 C   0  0  0  0  0  0  0  0  0  0  0  0
  -18.5868   -8.9266   -4.9484 N   0  0  0  0  0  0  0  0  0  0  0  0
  -19.9367   -8.3785   -5.2491 C   0  0  0  0  0  0  0  0  0  0  0  0
  -20.1450   -6.6240   -2.5587 H   0  0  0  0  0  0  0  0  0  0  0  0
  -21.1415   -8.4948   -3.3381 H   0  0  0  0  0  0  0  0  0  0  0  0
  -19.6674  -10.4669   -3.9096 H   0  0  0  0  0  0  0  0  0  0  0  0
  -18.4870   -9.5508   -2.8759 H   0  0  0  0  0  0  0  0  0  0  0  0
  -18.2183   -9.6275   -5.6588 H   0  0  0  0  0  0  0  0  0  0  0  0
  -17.9084   -8.1401   -4.6989 H   0  0  0  0  0  0  0  0  0  0  0  0
  -19.9232   -7.4100   -5.7321 H   0  0  0  0  0  0  0  0  0  0  0  0
  -20.5811   -9.1028   -5.7288 H   0  0  0  0  0  0  0  0  0  0  0  0
  1  2  1  0
  1  6  1  0
  2  3  1  0
  2  5  1  0
  2  7  1  0
  3  4  1  0
  3  8  1  0
  3  9  1  0
  4  5  1  0
  4 10  1  0
  4 11  1  0
  5 12  1  0
  5 13  1  0
M  CHG  1   4   1
M  END
> <intraLJ>
3.656     

> <intraEL>
5.220     

> <intraDihe>
6.360     

> <interLJ>
0.000     

> <interEJ>
0.000     

> <gridLJ>
-2.326    

> <gridEL>
0.000     

> <totalE>
12.910    

> <LGFE>
-2.326  

> <LE>
-0.465  

> <SMILES>
OC1C[NH2+]C1

> <atom.dprop.GFE>
-0.39 -0.16 -0.022 -1.7 -0.079 0 0 0 0 0 0 0 0

> <atom.prop.CLASS>
MEOO PRPC PRPC MAMN PRPC NCLA NCLA NCLA NCLA NCLA NCLA NCLA NCLA

$$$$
