13
     RDKit          3D

 13 12  0  0  0  0  0  0  0  0999 V2000
   22.7515   -2.0103  -12.0442 C   0  0  0  0  0  0  0  0  0  0  0  0
   21.5220   -1.8883  -11.1187 C   0  0  0  0  0  0  0  0  0  0  0  0
   20.4635   -2.8399  -11.6360 C   0  0  0  0  0  0  0  0  0  0  0  0
   20.0666   -3.8023  -10.9983 O   0  0  0  0  0  0  0  0  0  0  0  0
   19.9193   -2.5946  -12.8554 N   0  0  0  0  0  0  0  0  0  0  0  0
   18.9217   -3.4480  -13.3688 O   0  0  0  0  0  0  0  0  0  0  0  0
   23.5129   -1.3113  -11.6965 H   0  0  0  0  0  0  0  0  0  0  0  0
   22.4476   -1.7563  -13.0621 H   0  0  0  0  0  0  0  0  0  0  0  0
   23.1330   -3.0327  -12.0071 H   0  0  0  0  0  0  0  0  0  0  0  0
   21.1316   -0.8818  -11.1828 H   0  0  0  0  0  0  0  0  0  0  0  0
   21.7995   -2.1700  -10.1123 H   0  0  0  0  0  0  0  0  0  0  0  0
   20.2055   -1.7870  -13.4322 H   0  0  0  0  0  0  0  0  0  0  0  0
   18.7924   -4.1304  -12.6654 H   0  0  0  0  0  0  0  0  0  0  0  0
  1  2  1  0
  1  7  1  0
  1  8  1  0
  1  9  1  0
  2  3  1  0
  2 10  1  0
  2 11  1  0
  3  4  2  0
  3  5  1  0
  5  6  1  0
  5 12  1  0
  6 13  1  0
M  END
> <intraLJ>
0.240     

> <intraEL>
2.373     

> <intraDihe>
5.855     

> <interLJ>
0.000     

> <interEJ>
0.000     

> <gridLJ>
-2.482    

> <gridEL>
0.000     

> <totalE>
5.987     

> <LGFE>
-2.482  

> <LE>
-0.414  

> <SMILES>
CCC(=O)NO

> <atom.dprop.GFE>
-0.19 -0.25 0 -0.69 -0.84 -0.51 0 0 0 0 0 0 0

> <atom.prop.CLASS>
PRPC PRPC NCLA GENA GEND MEOO NCLA NCLA NCLA NCLA NCLA NCLA NCLA

$$$$
