59_2
     RDKit          3D

  9  8  0  0  0  0  0  0  0  0999 V2000
   -1.1813   14.5797   -1.9446 C   0  0  0  0  0  0  0  0  0  0  0  0
   -1.6626   15.9291   -1.4336 C   0  0  0  0  0  0  0  0  0  0  0  0
   -2.6013   15.8955   -0.6462 O   0  0  0  0  0  0  0  0  0  0  0  0
   -0.9949   17.1802   -1.8967 C   0  0  0  0  0  0  0  0  0  0  0  0
   -1.4114   17.7495   -2.9586 O   0  0  0  0  0  0  0  0  0  0  0  0
   -0.0196   17.6916   -1.2566 O   0  0  0  0  0  0  0  0  0  0  0  0
   -0.1422   14.4950   -1.6607 H   0  0  0  0  0  0  0  0  0  0  0  0
   -1.2854   14.6031   -3.0205 H   0  0  0  0  0  0  0  0  0  0  0  0
   -1.7909   13.8083   -1.4946 H   0  0  0  0  0  0  0  0  0  0  0  0
  1  2  1  0
  1  7  1  0
  1  8  1  0
  1  9  1  0
  2  3  2  0
  2  4  1  0
  4  5  2  0
  4  6  1  0
M  CHG  1   6  -1
M  END
> <intraLJ>
-0.400    

> <intraEL>
6.231     

> <intraDihe>
1.260     

> <interLJ>
0.000     

> <interEJ>
0.000     

> <gridLJ>
-2.601    

> <gridEL>
0.000     

> <totalE>
4.489     

> <LGFE>
-2.601  

> <LE>
-0.434  

> <SMILES>
CC(=O)C(=O)[O-]

> <atom.dprop.GFE>
-0.67 0 -1.1 -0.82 0 0 0 0 0

> <atom.prop.CLASS>
PRPC NCLA GENA ACEC NCLA NCLA NCLA NCLA NCLA

$$$$
