68_2
     RDKit          3D

 18 17  0  0  1  0  0  0  0  0999 V2000
    5.9122   19.5885    4.0732 C   0  0  0  0  0  0  0  0  0  0  0  0
    4.6317   18.7620    4.0085 C   0  0  0  0  0  0  0  0  0  0  0  0
    4.0863   18.6125    5.3653 N   0  0  0  0  0  0  0  0  0  0  0  0
    4.9007   17.4012    3.3468 C   0  0  0  0  0  0  0  0  0  0  0  0
    5.3486   17.5557    1.9014 C   0  0  0  0  0  0  0  0  0  0  0  0
    4.6408   18.1314    1.0889 O   0  0  0  0  0  0  0  0  0  0  0  0
    6.4885   17.0159    1.5235 N   0  0  0  0  0  0  0  0  0  0  0  0
    6.3065   19.7383    3.0672 H   0  0  0  0  0  0  0  0  0  0  0  0
    6.6693   19.0821    4.6742 H   0  0  0  0  0  0  0  0  0  0  0  0
    5.7051   20.5683    4.5058 H   0  0  0  0  0  0  0  0  0  0  0  0
    3.9060   19.2947    3.3841 H   0  0  0  0  0  0  0  0  0  0  0  0
    4.7356   18.1346    5.9694 H   0  0  0  0  0  0  0  0  0  0  0  0
    3.2429   18.0382    5.2720 H   0  0  0  0  0  0  0  0  0  0  0  0
    3.8345   19.5083    5.7537 H   0  0  0  0  0  0  0  0  0  0  0  0
    4.0058   16.7809    3.3719 H   0  0  0  0  0  0  0  0  0  0  0  0
    5.6911   16.8899    3.8969 H   0  0  0  0  0  0  0  0  0  0  0  0
    6.7491   17.1245    0.5544 H   0  0  0  0  0  0  0  0  0  0  0  0
    7.0864   16.5216    2.1645 H   0  0  0  0  0  0  0  0  0  0  0  0
  1  2  1  0
  1  8  1  0
  1  9  1  0
  1 10  1  0
  2  3  1  0
  2  4  1  0
  2 11  1  0
  3 12  1  0
  3 13  1  0
  3 14  1  0
  4  5  1  0
  4 15  1  0
  4 16  1  0
  5  6  2  0
  5  7  1  0
  7 17  1  0
  7 18  1  0
M  CHG  1   3   1
M  END
> <intraLJ>
1.107     

> <intraEL>
-7.820    

> <intraDihe>
0.090     

> <interLJ>
0.000     

> <interEJ>
0.000     

> <gridLJ>
-2.594    

> <gridEL>
0.000     

> <totalE>
-9.217    

> <LGFE>
-2.594  

> <LE>
-0.371  

> <SMILES>
CC([NH3+])CC(N)=O

> <atom.dprop.GFE>
0.12 0.1 -1.7 -0.038 0 -0.48 -0.6 0 0 0 0 0 0 0 0 0 0 0

> <atom.prop.CLASS>
PRPC PRPC MAMN PRPC NCLA GENA GEND NCLA NCLA NCLA NCLA NCLA NCLA NCLA NCLA NCLA NCLA NCLA

$$$$
