52_2
     RDKit          3D

  9  9  0  0  0  0  0  0  0  0999 V2000
    7.2906   11.5349  -37.5781 C   0  0  0  0  0  0  0  0  0  0  0  0
    8.2163   12.4440  -36.8249 C   0  0  0  0  0  0  0  0  0  0  0  0
    7.8577   13.6066  -36.3687 N   0  0  0  0  0  0  0  0  0  0  0  0
    8.9469   14.0743  -35.7819 N   0  0  0  0  0  0  0  0  0  0  0  0
    9.9167   13.1785  -35.9054 N   0  0  0  0  0  0  0  0  0  0  0  0
    9.4520   12.1353  -36.5730 N   0  0  0  0  0  0  0  0  0  0  0  0
    6.3172   12.0180  -37.6276 H   0  0  0  0  0  0  0  0  0  0  0  0
    7.2448   10.5990  -37.0259 H   0  0  0  0  0  0  0  0  0  0  0  0
    7.7190   11.3938  -38.5672 H   0  0  0  0  0  0  0  0  0  0  0  0
  1  2  1  0
  1  7  1  0
  1  8  1  0
  1  9  1  0
  2  3  1  0
  2  6  2  0
  3  4  1  0
  4  5  2  0
  5  6  1  0
M  CHG  1   3  -1
M  END
> <intraLJ>
0.213     

> <intraEL>
-1.734    

> <intraDihe>
1.640     

> <interLJ>
0.000     

> <interEJ>
0.000     

> <gridLJ>
-4.475    

> <gridEL>
0.000     

> <totalE>
-4.356    

> <LGFE>
-4.475  

> <LE>
-0.746  

> <SMILES>
Cc1nnn[n-]1

> <atom.dprop.GFE>
-0.22 -0.2 0.38 -1.4 -1.4 -1.6 0 0 0

> <atom.prop.CLASS>
PRPC GEHC ACEC GENA GENA GENA NCLA NCLA NCLA

$$$$
