2_2
     RDKit          3D

 16 16  0  0  0  0  0  0  0  0999 V2000
    9.1871   12.4877  -38.6129 C   0  0  0  0  0  0  0  0  0  0  0  0
    9.4962   13.2666  -37.3193 C   0  0  0  0  0  0  0  0  0  0  0  0
    9.0750   12.5151  -36.1814 O   0  0  0  0  0  0  0  0  0  0  0  0
    7.6879   12.1762  -36.1885 C   0  0  0  0  0  0  0  0  0  0  0  0
    7.3431   11.3788  -37.4617 C   0  0  0  0  0  0  0  0  0  0  0  0
    7.7422   12.1184  -38.6975 N   0  0  0  0  0  0  0  0  0  0  0  0
    9.7980   11.5808  -38.6015 H   0  0  0  0  0  0  0  0  0  0  0  0
    9.4863   13.0894  -39.4747 H   0  0  0  0  0  0  0  0  0  0  0  0
    8.9898   14.2341  -37.3370 H   0  0  0  0  0  0  0  0  0  0  0  0
   10.5719   13.4435  -37.2537 H   0  0  0  0  0  0  0  0  0  0  0  0
    7.0819   13.0820  -36.1409 H   0  0  0  0  0  0  0  0  0  0  0  0
    7.4643   11.5667  -35.3106 H   0  0  0  0  0  0  0  0  0  0  0  0
    6.2728   11.1595  -37.4683 H   0  0  0  0  0  0  0  0  0  0  0  0
    7.8853   10.4305  -37.4094 H   0  0  0  0  0  0  0  0  0  0  0  0
    7.5688   11.5525  -39.5191 H   0  0  0  0  0  0  0  0  0  0  0  0
    7.1919   12.9656  -38.7637 H   0  0  0  0  0  0  0  0  0  0  0  0
  1  2  1  0
  1  6  1  0
  1  7  1  0
  1  8  1  0
  2  3  1  0
  2  9  1  0
  2 10  1  0
  3  4  1  0
  4  5  1  0
  4 11  1  0
  4 12  1  0
  5  6  1  0
  5 13  1  0
  5 14  1  0
  6 15  1  0
  6 16  1  0
M  CHG  1   6   1
M  END
> <intraLJ>
0.208     

> <intraEL>
4.487     

> <intraDihe>
1.850     

> <interLJ>
0.000     

> <interEJ>
0.000     

> <gridLJ>
-2.584    

> <gridEL>
0.000     

> <totalE>
3.962     

> <LGFE>
-2.584  

> <LE>
-0.431  

> <SMILES>
C1COCC[NH2+]1

> <atom.dprop.GFE>
-0.14 -0.31 -1.6 -0.29 -0.22 -0.06 0 0 0 0 0 0 0 0 0 0

> <atom.prop.CLASS>
PRPC PRPC GENA PRPC PRPC MAMN NCLA NCLA NCLA NCLA NCLA NCLA NCLA NCLA NCLA NCLA

$$$$
