18
     RDKit          3D

 13 13  0  0  0  0  0  0  0  0999 V2000
   13.6576   -4.5295  -37.7164 O   0  0  0  0  0  0  0  0  0  0  0  0
   12.2226   -4.4773  -37.8101 C   0  0  0  0  0  0  0  0  0  0  0  0
   11.7564   -4.7154  -39.3404 C   0  0  0  0  0  0  0  0  0  0  0  0
   11.3215   -3.0319  -39.4441 S   0  0  0  0  0  0  0  0  0  0  0  0
    9.9201   -2.8818  -39.6420 O   0  0  0  0  0  0  0  0  0  0  0  0
   12.2346   -2.2996  -40.2535 O   0  0  0  0  0  0  0  0  0  0  0  0
   11.7273   -2.9371  -37.7539 C   0  0  0  0  0  0  0  0  0  0  0  0
   13.9753   -5.4485  -37.6843 H   0  0  0  0  0  0  0  0  0  0  0  0
   11.7534   -5.1277  -37.0841 H   0  0  0  0  0  0  0  0  0  0  0  0
   10.9658   -5.4537  -39.3364 H   0  0  0  0  0  0  0  0  0  0  0  0
   12.6097   -5.0822  -39.8954 H   0  0  0  0  0  0  0  0  0  0  0  0
   12.5654   -2.3295  -37.4383 H   0  0  0  0  0  0  0  0  0  0  0  0
   10.9235   -2.8718  -37.0334 H   0  0  0  0  0  0  0  0  0  0  0  0
  1  2  1  0
  1  8  1  0
  2  3  1  0
  2  7  1  0
  2  9  1  0
  3  4  1  0
  3 10  1  0
  3 11  1  0
  4  5  2  0
  4  6  2  0
  4  7  1  0
  7 12  1  0
  7 13  1  0
M  END
> <intraLJ>
0.307     

> <intraEL>
-1.458    

> <intraDihe>
23.153    

> <interLJ>
0.000     

> <interEJ>
0.000     

> <gridLJ>
-2.041    

> <gridEL>
0.000     

> <totalE>
19.961    

> <LGFE>
-2.041  

> <LE>
-0.292  

> <SMILES>
O=S1(=O)CC(O)C1

> <atom.dprop.GFE>
-0.73 -0.25 -0.24 0 -0.052 -0.68 -0.087 0 0 0 0 0 0

> <atom.prop.CLASS>
MEOO PRPC PRPC NCLA GENA GENA PRPC NCLA NCLA NCLA NCLA NCLA NCLA

$$$$
