21_1
     RDKit          3D

 17 16  0  0  0  0  0  0  0  0999 V2000
  -19.0776   -9.6635   -7.3889 C   0  0  0  0  0  0  0  0  0  0  0  0
  -17.9474   -9.0316   -8.2273 C   0  0  0  0  0  0  0  0  0  0  0  0
  -17.0116  -10.1691   -8.6996 C   0  0  0  0  0  0  0  0  0  0  0  0
  -17.1853   -8.0383   -7.3493 C   0  0  0  0  0  0  0  0  0  0  0  0
  -17.0474   -6.8035   -7.6145 N   0  0  0  0  0  0  0  0  0  0  0  0
  -16.3984   -5.9900   -6.7160 O   0  0  0  0  0  0  0  0  0  0  0  0
  -16.5648   -8.5624   -6.2325 N   0  0  0  0  0  0  0  0  0  0  0  0
  -19.6156  -10.3834   -8.0067 H   0  0  0  0  0  0  0  0  0  0  0  0
  -19.7543   -8.8739   -7.0609 H   0  0  0  0  0  0  0  0  0  0  0  0
  -18.6384  -10.1618   -6.5215 H   0  0  0  0  0  0  0  0  0  0  0  0
  -18.3568   -8.5228   -9.0896 H   0  0  0  0  0  0  0  0  0  0  0  0
  -16.6338  -10.7137   -7.8319 H   0  0  0  0  0  0  0  0  0  0  0  0
  -16.1806   -9.7230   -9.2473 H   0  0  0  0  0  0  0  0  0  0  0  0
  -17.5727  -10.8397   -9.3510 H   0  0  0  0  0  0  0  0  0  0  0  0
  -16.4453   -6.4483   -5.8504 H   0  0  0  0  0  0  0  0  0  0  0  0
  -15.6427   -8.1311   -6.0897 H   0  0  0  0  0  0  0  0  0  0  0  0
  -16.5373   -9.5890   -6.2327 H   0  0  0  0  0  0  0  0  0  0  0  0
  1  2  1  0
  1  8  1  0
  1  9  1  0
  1 10  1  0
  2  3  1  0
  2  4  1  0
  2 11  1  0
  3 12  1  0
  3 13  1  0
  3 14  1  0
  4  5  2  0
  4  7  1  0
  5  6  1  0
  6 15  1  0
  7 16  1  0
  7 17  1  0
M  END
> <intraLJ>
7.547     

> <intraEL>
0.137     

> <intraDihe>
5.065     

> <interLJ>
0.000     

> <interEJ>
0.000     

> <gridLJ>
-4.512    

> <gridEL>
0.000     

> <totalE>
8.236     

> <LGFE>
-4.512  

> <LE>
-0.645  

> <SMILES>
CC(C)C(N)=NO

> <atom.dprop.GFE>
-0.032 -0.19 -0.22 0 -1.5 -1.4 -1.2 0 0 0 0 0 0 0 0 0 0

> <atom.prop.CLASS>
PRPC PRPC PRPC NCLA GENA MEOO GEND NCLA NCLA NCLA NCLA NCLA NCLA NCLA NCLA NCLA NCLA

$$$$
