55
     RDKit          3D

  7  7  0  0  0  0  0  0  0  0999 V2000
  -19.7368    9.0970   -8.6346 C   0  0  0  0  0  0  0  0  0  0  0  0
  -18.9744   10.1228   -8.6228 N   0  0  0  0  0  0  0  0  0  0  0  0
  -18.3134   10.0821   -7.4217 N   0  0  0  0  0  0  0  0  0  0  0  0
  -18.7414    9.0349   -6.8255 C   0  0  0  0  0  0  0  0  0  0  0  0
  -19.6260    8.3931   -7.5403 O   0  0  0  0  0  0  0  0  0  0  0  0
  -20.4048    8.7887   -9.3995 H   0  0  0  0  0  0  0  0  0  0  0  0
  -18.4620    8.6673   -5.8706 H   0  0  0  0  0  0  0  0  0  0  0  0
  1  2  2  0
  1  5  1  0
  1  6  1  0
  2  3  1  0
  3  4  2  0
  4  5  1  0
  4  7  1  0
M  END
> <intraLJ>
-0.193    

> <intraEL>
-0.061    

> <intraDihe>
0.000     

> <interLJ>
0.000     

> <interEJ>
0.000     

> <gridLJ>
-2.361    

> <gridEL>
0.000     

> <totalE>
-2.614    

> <LGFE>
-2.361  

> <LE>
-0.472  

> <SMILES>
c1nnco1

> <atom.dprop.GFE>
-0.18 -0.63 -0.69 -0.26 -0.61 0 0

> <atom.prop.CLASS>
GEHC GENA GENA GEHC GENA NCLA NCLA

$$$$
