24_2
     RDKit          3D

 17 17  0  0  0  0  0  0  0  0999 V2000
   -3.9398   15.9238   -5.8576 N   0  0  0  0  0  0  0  0  0  0  0  0
   -3.4746   15.5614   -4.7110 C   0  0  0  0  0  0  0  0  0  0  0  0
   -4.3075   15.3853   -3.7215 N   0  0  0  0  0  0  0  0  0  0  0  0
   -3.8823   15.0286   -2.3615 C   0  0  0  0  0  0  0  0  0  0  0  0
   -2.5866   14.2253   -2.5121 C   0  0  0  0  0  0  0  0  0  0  0  0
   -1.5487   15.0212   -3.3093 C   0  0  0  0  0  0  0  0  0  0  0  0
   -2.1894   15.3755   -4.5825 N   0  0  0  0  0  0  0  0  0  0  0  0
   -3.3070   16.0362   -6.6547 H   0  0  0  0  0  0  0  0  0  0  0  0
   -4.9483   16.0425   -5.9873 H   0  0  0  0  0  0  0  0  0  0  0  0
   -5.2941   15.6009   -3.8896 H   0  0  0  0  0  0  0  0  0  0  0  0
   -4.6396   14.4139   -1.8675 H   0  0  0  0  0  0  0  0  0  0  0  0
   -3.7015   15.9270   -1.7658 H   0  0  0  0  0  0  0  0  0  0  0  0
   -2.7946   13.2805   -3.0184 H   0  0  0  0  0  0  0  0  0  0  0  0
   -2.1861   14.0003   -1.5231 H   0  0  0  0  0  0  0  0  0  0  0  0
   -0.6628   14.4018   -3.4791 H   0  0  0  0  0  0  0  0  0  0  0  0
   -1.2595   15.9209   -2.7584 H   0  0  0  0  0  0  0  0  0  0  0  0
   -1.5967   15.5818   -5.3927 H   0  0  0  0  0  0  0  0  0  0  0  0
  1  2  2  0
  1  8  1  0
  1  9  1  0
  2  3  1  0
  2  7  1  0
  3  4  1  0
  3 10  1  0
  4  5  1  0
  4 11  1  0
  4 12  1  0
  5  6  1  0
  5 13  1  0
  5 14  1  0
  6  7  1  0
  6 15  1  0
  6 16  1  0
  7 17  1  0
M  CHG  1   1   1
M  END
> <intraLJ>
2.615     

> <intraEL>
-18.178   

> <intraDihe>
0.248     

> <interLJ>
0.000     

> <interEJ>
0.000     

> <gridLJ>
-2.861    

> <gridEL>
0.000     

> <totalE>
-18.175   

> <LGFE>
-2.861  

> <LE>
-0.409  

> <SMILES>
[NH2+]=C1NCCCN1

> <atom.dprop.GFE>
0 -1 0 -0.64 -0.67 -0.5 0 0 0 0 0 0 0 0 0 0 0

> <atom.prop.CLASS>
NCLA MAMC NCLA PRPC PRPC PRPC NCLA NCLA NCLA NCLA NCLA NCLA NCLA NCLA NCLA NCLA NCLA

$$$$
