29_2
     RDKit          3D

 13 13  0  0  0  0  0  0  0  0999 V2000
   12.3004   -6.3147   -0.3378 N   0  0  0  0  0  0  0  0  0  0  0  0
   12.0948   -5.5739   -1.4943 C   0  0  0  0  0  0  0  0  0  0  0  0
   12.3895   -4.2762   -1.7399 C   0  0  0  0  0  0  0  0  0  0  0  0
   11.9564   -3.8428   -3.3634 S   0  0  0  0  0  0  0  0  0  0  0  0
   11.4147   -5.4419   -3.6399 C   0  0  0  0  0  0  0  0  0  0  0  0
   10.9086   -5.8771   -4.8094 N   0  0  0  0  0  0  0  0  0  0  0  0
   11.5484   -6.2248   -2.5692 N   0  0  0  0  0  0  0  0  0  0  0  0
   11.5637   -6.9971   -0.1031 H   0  0  0  0  0  0  0  0  0  0  0  0
   12.5339   -5.7189    0.4765 H   0  0  0  0  0  0  0  0  0  0  0  0
   12.8270   -3.5791   -1.0709 H   0  0  0  0  0  0  0  0  0  0  0  0
   10.5994   -6.8480   -4.9604 H   0  0  0  0  0  0  0  0  0  0  0  0
   10.8404   -5.2133   -5.6006 H   0  0  0  0  0  0  0  0  0  0  0  0
   11.3141   -7.2220   -2.5616 H   0  0  0  0  0  0  0  0  0  0  0  0
  1  2  1  0
  1  8  1  0
  1  9  1  0
  2  3  2  0
  2  7  1  0
  3  4  1  0
  3 10  1  0
  4  5  1  0
  5  6  2  0
  5  7  1  0
  6 11  1  0
  6 12  1  0
  7 13  1  0
M  CHG  1   6   1
M  END
> <intraLJ>
-0.730    

> <intraEL>
-5.242    

> <intraDihe>
2.059     

> <interLJ>
0.000     

> <interEJ>
0.000     

> <gridLJ>
-3.186    

> <gridEL>
0.000     

> <totalE>
-7.099    

> <LGFE>
-3.186  

> <LE>
-0.455  

> <SMILES>
Nc1csc(=[NH2+])[nH]1

> <atom.dprop.GFE>
-0.25 0.039 0.026 0.0073 -1.4 -1.6 0 0 0 0 0 0 0

> <atom.prop.CLASS>
GEND GEHC GEHC PRPC MAMC MAMN NCLA NCLA NCLA NCLA NCLA NCLA NCLA

$$$$
