31_1
     RDKit          3D

 15 15  0  0  0  0  0  0  0  0999 V2000
   22.4158    3.6567  -30.7245 O   0  0  0  0  0  0  0  0  0  0  0  0
   22.7480    2.6009  -30.2039 C   0  0  0  0  0  0  0  0  0  0  0  0
   22.9181    2.4795  -28.6658 C   0  0  0  0  0  0  0  0  0  0  0  0
   22.9984    1.0792  -28.1252 N   0  0  0  0  0  0  0  0  0  0  0  0
   23.8007    0.2292  -29.0446 C   0  0  0  0  0  0  0  0  0  0  0  0
   23.1667    0.1968  -30.4467 C   0  0  0  0  0  0  0  0  0  0  0  0
   23.0415    1.5542  -30.9761 N   0  0  0  0  0  0  0  0  0  0  0  0
   22.0923    3.0090  -28.1890 H   0  0  0  0  0  0  0  0  0  0  0  0
   23.8400    3.0003  -28.4092 H   0  0  0  0  0  0  0  0  0  0  0  0
   22.0611    0.7026  -28.0478 H   0  0  0  0  0  0  0  0  0  0  0  0
   23.8558   -0.7880  -28.6518 H   0  0  0  0  0  0  0  0  0  0  0  0
   24.8167    0.6230  -29.1207 H   0  0  0  0  0  0  0  0  0  0  0  0
   22.1803   -0.2653  -30.3826 H   0  0  0  0  0  0  0  0  0  0  0  0
   23.7950   -0.4019  -31.1086 H   0  0  0  0  0  0  0  0  0  0  0  0
   22.9616    1.7051  -31.9681 H   0  0  0  0  0  0  0  0  0  0  0  0
  1  2  2  0
  2  3  1  0
  2  7  1  0
  3  4  1  0
  3  8  1  0
  3  9  1  0
  4  5  1  0
  4 10  1  0
  5  6  1  0
  5 11  1  0
  5 12  1  0
  6  7  1  0
  6 13  1  0
  6 14  1  0
  7 15  1  0
M  END
> <intraLJ>
0.615     

> <intraEL>
3.232     

> <intraDihe>
15.833    

> <interLJ>
0.000     

> <interEJ>
0.000     

> <gridLJ>
-3.500    

> <gridEL>
0.000     

> <totalE>
16.180    

> <LGFE>
-3.500  

> <LE>
-0.500  

> <SMILES>
O=C1CNCCN1

> <atom.dprop.GFE>
-1.5 0 -0.27 -0.66 -0.25 -0.21 -0.62 0 0 0 0 0 0 0 0

> <atom.prop.CLASS>
GENA NCLA PRPC GEND PRPC PRPC GEND NCLA NCLA NCLA NCLA NCLA NCLA NCLA NCLA

$$$$
