26_2
     RDKit          3D

 13 13  0  0  0  0  0  0  0  0999 V2000
   22.9017   12.1364  -43.3007 O   0  0  0  0  0  0  0  0  0  0  0  0
   24.3126   12.1233  -43.6310 C   0  0  0  0  0  0  0  0  0  0  0  0
   24.9160   11.0310  -42.7776 C   0  0  0  0  0  0  0  0  0  0  0  0
   25.7881   11.0701  -41.7442 C   0  0  0  0  0  0  0  0  0  0  0  0
   25.9944    9.7560  -41.3378 C   0  0  0  0  0  0  0  0  0  0  0  0
   25.2984    8.9252  -42.0632 N   0  0  0  0  0  0  0  0  0  0  0  0
   24.6356    9.7197  -42.9490 N   0  0  0  0  0  0  0  0  0  0  0  0
   22.4433   12.8219  -43.8159 H   0  0  0  0  0  0  0  0  0  0  0  0
   24.7623   13.0710  -43.3591 H   0  0  0  0  0  0  0  0  0  0  0  0
   24.4437   11.8670  -44.6746 H   0  0  0  0  0  0  0  0  0  0  0  0
   26.2325   11.9331  -41.3232 H   0  0  0  0  0  0  0  0  0  0  0  0
   26.6274    9.4461  -40.5454 H   0  0  0  0  0  0  0  0  0  0  0  0
   23.9860    9.3658  -43.6781 H   0  0  0  0  0  0  0  0  0  0  0  0
  1  2  1  0
  1  8  1  0
  2  3  1  0
  2  9  1  0
  2 10  1  0
  3  4  2  0
  3  7  1  0
  4  5  1  0
  4 11  1  0
  5  6  2  0
  5 12  1  0
  6  7  1  0
  7 13  1  0
M  END
> <intraLJ>
0.088     

> <intraEL>
1.021     

> <intraDihe>
1.722     

> <interLJ>
0.000     

> <interEJ>
0.000     

> <gridLJ>
-2.083    

> <gridEL>
0.000     

> <totalE>
0.748     

> <LGFE>
-2.083  

> <LE>
-0.298  

> <SMILES>
OCc1ccn[nH]1

> <atom.dprop.GFE>
-0.85 -0.044 -0.1 -0.12 -0.049 -0.41 -0.51 0 0 0 0 0 0

> <atom.prop.CLASS>
MEOO PRPC GEHC GEHC GEHC GENA GEND NCLA NCLA NCLA NCLA NCLA NCLA

$$$$
