24_1
     RDKit          3D

 16 16  0  0  0  0  0  0  0  0999 V2000
  -24.0443    3.0659    6.1764 N   0  0  0  0  0  0  0  0  0  0  0  0
  -25.3372    3.0997    6.4940 C   0  0  0  0  0  0  0  0  0  0  0  0
  -25.7909    3.9294    7.3271 N   0  0  0  0  0  0  0  0  0  0  0  0
  -27.2240    3.9714    7.6337 C   0  0  0  0  0  0  0  0  0  0  0  0
  -27.9672    3.5283    6.3653 C   0  0  0  0  0  0  0  0  0  0  0  0
  -27.5051    2.1236    5.9606 C   0  0  0  0  0  0  0  0  0  0  0  0
  -26.0458    2.1624    5.8223 N   0  0  0  0  0  0  0  0  0  0  0  0
  -23.5138    3.6084    6.8650 H   0  0  0  0  0  0  0  0  0  0  0  0
  -23.7168    2.1091    6.0269 H   0  0  0  0  0  0  0  0  0  0  0  0
  -27.5141    4.9891    7.8953 H   0  0  0  0  0  0  0  0  0  0  0  0
  -27.4466    3.2999    8.4645 H   0  0  0  0  0  0  0  0  0  0  0  0
  -27.7569    4.2320    5.5574 H   0  0  0  0  0  0  0  0  0  0  0  0
  -29.0392    3.5182    6.5572 H   0  0  0  0  0  0  0  0  0  0  0  0
  -27.9732    1.8322    5.0186 H   0  0  0  0  0  0  0  0  0  0  0  0
  -27.7795    1.4106    6.7409 H   0  0  0  0  0  0  0  0  0  0  0  0
  -25.6595    1.9895    4.8882 H   0  0  0  0  0  0  0  0  0  0  0  0
  1  2  1  0
  1  8  1  0
  1  9  1  0
  2  3  2  0
  2  7  1  0
  3  4  1  0
  4  5  1  0
  4 10  1  0
  4 11  1  0
  5  6  1  0
  5 12  1  0
  5 13  1  0
  6  7  1  0
  6 14  1  0
  6 15  1  0
  7 16  1  0
M  END
> <intraLJ>
3.879     

> <intraEL>
-12.614   

> <intraDihe>
8.194     

> <interLJ>
0.000     

> <interEJ>
0.000     

> <gridLJ>
-3.433    

> <gridEL>
0.000     

> <totalE>
-3.973    

> <LGFE>
-3.433  

> <LE>
-0.490  

> <SMILES>
NC1=NCCCN1

> <atom.dprop.GFE>
-0.99 0 -0.77 -0.34 -0.31 -0.38 -0.64 0 0 0 0 0 0 0 0 0

> <atom.prop.CLASS>
GEND NCLA GENA PRPC PRPC PRPC GEND NCLA NCLA NCLA NCLA NCLA NCLA NCLA NCLA NCLA

$$$$
