52_1
     RDKit          3D

 10 10  0  0  0  0  0  0  0  0999 V2000
  -29.0888   16.1380   22.8217 C   0  0  0  0  0  0  0  0  0  0  0  0
  -28.8389   15.4276   24.1318 C   0  0  0  0  0  0  0  0  0  0  0  0
  -28.0965   14.4096   24.3574 N   0  0  0  0  0  0  0  0  0  0  0  0
  -28.2061   14.1529   25.6894 N   0  0  0  0  0  0  0  0  0  0  0  0
  -29.0075   15.0112   26.2536 N   0  0  0  0  0  0  0  0  0  0  0  0
  -29.3922   15.7969   25.2730 N   0  0  0  0  0  0  0  0  0  0  0  0
  -28.4984   15.6416   22.0504 H   0  0  0  0  0  0  0  0  0  0  0  0
  -28.7801   17.1783   22.9255 H   0  0  0  0  0  0  0  0  0  0  0  0
  -30.1512   16.0704   22.5875 H   0  0  0  0  0  0  0  0  0  0  0  0
  -30.0413   16.5908   25.4006 H   0  0  0  0  0  0  0  0  0  0  0  0
  1  2  1  0
  1  7  1  0
  1  8  1  0
  1  9  1  0
  2  3  2  0
  2  6  1  0
  3  4  1  0
  4  5  2  0
  5  6  1  0
  6 10  1  0
M  END
> <intraLJ>
-0.215    

> <intraEL>
-1.684    

> <intraDihe>
1.140     

> <interLJ>
0.000     

> <interEJ>
0.000     

> <gridLJ>
-3.128    

> <gridEL>
0.000     

> <totalE>
-3.888    

> <LGFE>
-3.128  

> <LE>
-0.521  

> <SMILES>
Cc1nnn[nH]1

> <atom.dprop.GFE>
-0.14 -0.18 -0.43 -1 -1 -0.37 0 0 0 0

> <atom.prop.CLASS>
PRPC GEHC GENA GENA GENA GEND NCLA NCLA NCLA NCLA

$$$$
