68_2
     RDKit          3D

 18 17  0  0  1  0  0  0  0  0999 V2000
  -14.8138  -18.1280    1.3097 C   0  0  0  0  0  0  0  0  0  0  0  0
  -15.0700  -16.6546    1.6101 C   0  0  0  0  0  0  0  0  0  0  0  0
  -16.3133  -16.2372    0.9462 N   0  0  0  0  0  0  0  0  0  0  0  0
  -13.8717  -15.7981    1.1713 C   0  0  0  0  0  0  0  0  0  0  0  0
  -13.9795  -14.3712    1.6869 C   0  0  0  0  0  0  0  0  0  0  0  0
  -14.9002  -13.6500    1.3337 O   0  0  0  0  0  0  0  0  0  0  0  0
  -13.0384  -13.9048    2.4808 N   0  0  0  0  0  0  0  0  0  0  0  0
  -13.9131  -18.4596    1.8280 H   0  0  0  0  0  0  0  0  0  0  0  0
  -14.6796  -18.2866    0.2383 H   0  0  0  0  0  0  0  0  0  0  0  0
  -15.6500  -18.7338    1.6614 H   0  0  0  0  0  0  0  0  0  0  0  0
  -15.1814  -16.5356    2.6934 H   0  0  0  0  0  0  0  0  0  0  0  0
  -16.2476  -16.3447   -0.0533 H   0  0  0  0  0  0  0  0  0  0  0  0
  -16.4313  -15.2423    1.1611 H   0  0  0  0  0  0  0  0  0  0  0  0
  -17.1040  -16.7489    1.3063 H   0  0  0  0  0  0  0  0  0  0  0  0
  -13.7974  -15.7736    0.0850 H   0  0  0  0  0  0  0  0  0  0  0  0
  -12.9571  -16.2377    1.5703 H   0  0  0  0  0  0  0  0  0  0  0  0
  -13.1328  -12.9496    2.7931 H   0  0  0  0  0  0  0  0  0  0  0  0
  -12.2589  -14.4680    2.7771 H   0  0  0  0  0  0  0  0  0  0  0  0
  1  2  1  0
  1  8  1  0
  1  9  1  0
  1 10  1  0
  2  3  1  0
  2  4  1  0
  2 11  1  0
  3 12  1  0
  3 13  1  0
  3 14  1  0
  4  5  1  0
  4 15  1  0
  4 16  1  0
  5  6  2  0
  5  7  1  0
  7 17  1  0
  7 18  1  0
M  CHG  1   3   1
M  END
> <intraLJ>
1.914     

> <intraEL>
-9.006    

> <intraDihe>
0.214     

> <interLJ>
0.000     

> <interEJ>
0.000     

> <gridLJ>
-2.587    

> <gridEL>
0.000     

> <totalE>
-9.465    

> <LGFE>
-2.587  

> <LE>
-0.370  

> <SMILES>
CC([NH3+])CC(N)=O

> <atom.dprop.GFE>
0.18 0.094 -1.7 -0.039 0 -0.54 -0.59 0 0 0 0 0 0 0 0 0 0 0

> <atom.prop.CLASS>
PRPC PRPC MAMN PRPC NCLA GENA GEND NCLA NCLA NCLA NCLA NCLA NCLA NCLA NCLA NCLA NCLA NCLA

$$$$
