31_2
     RDKit          3D

 16 16  0  0  0  0  0  0  0  0999 V2000
   12.0279    6.9382    7.7039 O   0  0  0  0  0  0  0  0  0  0  0  0
   11.9452    8.0040    7.1244 C   0  0  0  0  0  0  0  0  0  0  0  0
   11.2467    8.1049    5.7414 C   0  0  0  0  0  0  0  0  0  0  0  0
   10.8853    9.5029    5.3042 N   0  0  0  0  0  0  0  0  0  0  0  0
   11.9939   10.4507    5.6382 C   0  0  0  0  0  0  0  0  0  0  0  0
   12.2788   10.4509    7.1569 C   0  0  0  0  0  0  0  0  0  0  0  0
   12.5314    9.0894    7.6349 N   0  0  0  0  0  0  0  0  0  0  0  0
   10.3576    7.4720    5.7722 H   0  0  0  0  0  0  0  0  0  0  0  0
   11.9362    7.6616    5.0201 H   0  0  0  0  0  0  0  0  0  0  0  0
   10.0483    9.7850    5.8012 H   0  0  0  0  0  0  0  0  0  0  0  0
   10.6891    9.5126    4.3100 H   0  0  0  0  0  0  0  0  0  0  0  0
   11.7369   11.4668    5.3290 H   0  0  0  0  0  0  0  0  0  0  0  0
   12.9102   10.1564    5.1170 H   0  0  0  0  0  0  0  0  0  0  0  0
   11.4241   10.8751    7.6897 H   0  0  0  0  0  0  0  0  0  0  0  0
   13.1508   11.0787    7.3556 H   0  0  0  0  0  0  0  0  0  0  0  0
   13.0212    8.9470    8.5120 H   0  0  0  0  0  0  0  0  0  0  0  0
  1  2  2  0
  2  3  1  0
  2  7  1  0
  3  4  1  0
  3  8  1  0
  3  9  1  0
  4  5  1  0
  4 10  1  0
  4 11  1  0
  5  6  1  0
  5 12  1  0
  5 13  1  0
  6  7  1  0
  6 14  1  0
  6 15  1  0
  7 16  1  0
M  CHG  1   4   1
M  END
> <intraLJ>
0.159     

> <intraEL>
4.369     

> <intraDihe>
10.053    

> <interLJ>
0.000     

> <interEJ>
0.000     

> <gridLJ>
-1.983    

> <gridEL>
0.000     

> <totalE>
12.598    

> <LGFE>
-1.983  

> <LE>
-0.283  

> <SMILES>
O=C1C[NH2+]CCN1

> <atom.dprop.GFE>
-0.31 0 0.27 -1.7 -0.085 -0.067 -0.13 0 0 0 0 0 0 0 0 0

> <atom.prop.CLASS>
GENA NCLA PRPC MAMN PRPC PRPC GEND NCLA NCLA NCLA NCLA NCLA NCLA NCLA NCLA NCLA

$$$$
