80
     RDKit          3D

 16 16  0  0  0  0  0  0  0  0999 V2000
   17.6406   -1.7548  -14.0203 N   0  0  0  0  0  0  0  0  0  0  0  0
   18.1431   -2.9544  -13.6894 C   0  0  0  0  0  0  0  0  0  0  0  0
   17.9242   -3.8564  -14.4654 O   0  0  0  0  0  0  0  0  0  0  0  0
   18.9320   -3.0901  -12.3980 C   0  0  0  0  0  0  0  0  0  0  0  0
   20.3226   -2.3974  -12.4446 C   0  0  0  0  0  0  0  0  0  0  0  0
   20.8570   -3.6310  -11.6576 C   0  0  0  0  0  0  0  0  0  0  0  0
   19.6778   -4.4474  -12.2643 C   0  0  0  0  0  0  0  0  0  0  0  0
   17.1227   -1.6944  -14.8807 H   0  0  0  0  0  0  0  0  0  0  0  0
   17.7787   -0.9552  -13.4303 H   0  0  0  0  0  0  0  0  0  0  0  0
   18.3400   -2.8278  -11.5291 H   0  0  0  0  0  0  0  0  0  0  0  0
   20.3708   -1.4679  -11.8946 H   0  0  0  0  0  0  0  0  0  0  0  0
   20.7416   -2.3320  -13.4404 H   0  0  0  0  0  0  0  0  0  0  0  0
   20.7702   -3.5094  -10.5848 H   0  0  0  0  0  0  0  0  0  0  0  0
   21.8351   -3.9664  -11.9732 H   0  0  0  0  0  0  0  0  0  0  0  0
   19.9355   -4.8972  -13.2142 H   0  0  0  0  0  0  0  0  0  0  0  0
   19.2159   -5.1383  -11.5725 H   0  0  0  0  0  0  0  0  0  0  0  0
  1  2  1  0
  1  8  1  0
  1  9  1  0
  2  3  2  0
  2  4  1  0
  4  5  1  0
  4  7  1  0
  4 10  1  0
  5  6  1  0
  5 11  1  0
  5 12  1  0
  6  7  1  0
  6 13  1  0
  6 14  1  0
  7 15  1  0
  7 16  1  0
M  END
> <intraLJ>
0.099     

> <intraEL>
-0.834    

> <intraDihe>
21.627    

> <interLJ>
0.000     

> <interEJ>
0.000     

> <gridLJ>
-3.117    

> <gridEL>
0.000     

> <totalE>
17.776    

> <LGFE>
-3.117  

> <LE>
-0.445  

> <SMILES>
NC(=O)C1CCC1

> <atom.dprop.GFE>
-1.1 0 -0.69 -0.35 -0.31 -0.36 -0.32 0 0 0 0 0 0 0 0 0

> <atom.prop.CLASS>
GEND NCLA GENA PRPC PRPC PRPC PRPC NCLA NCLA NCLA NCLA NCLA NCLA NCLA NCLA NCLA

$$$$
