2_1
     RDKit          3D

 15 15  0  0  0  0  0  0  0  0999 V2000
   13.2874   -3.9670    5.9426 C   0  0  0  0  0  0  0  0  0  0  0  0
   12.7404   -5.4045    5.8676 C   0  0  0  0  0  0  0  0  0  0  0  0
   11.3223   -5.4247    6.0393 O   0  0  0  0  0  0  0  0  0  0  0  0
   10.9350   -4.8485    7.2879 C   0  0  0  0  0  0  0  0  0  0  0  0
   11.4296   -3.3943    7.4045 C   0  0  0  0  0  0  0  0  0  0  0  0
   12.9012   -3.3021    7.2153 N   0  0  0  0  0  0  0  0  0  0  0  0
   12.8824   -3.4075    5.0968 H   0  0  0  0  0  0  0  0  0  0  0  0
   14.3742   -3.9929    5.8536 H   0  0  0  0  0  0  0  0  0  0  0  0
   13.2129   -6.0036    6.6470 H   0  0  0  0  0  0  0  0  0  0  0  0
   12.9906   -5.8342    4.8973 H   0  0  0  0  0  0  0  0  0  0  0  0
   11.3559   -5.4311    8.1083 H   0  0  0  0  0  0  0  0  0  0  0  0
    9.8480   -4.8647    7.3701 H   0  0  0  0  0  0  0  0  0  0  0  0
   11.1573   -3.0019    8.3850 H   0  0  0  0  0  0  0  0  0  0  0  0
   10.9221   -2.8019    6.6403 H   0  0  0  0  0  0  0  0  0  0  0  0
   13.2084   -2.3364    7.2280 H   0  0  0  0  0  0  0  0  0  0  0  0
  1  2  1  0
  1  6  1  0
  1  7  1  0
  1  8  1  0
  2  3  1  0
  2  9  1  0
  2 10  1  0
  3  4  1  0
  4  5  1  0
  4 11  1  0
  4 12  1  0
  5  6  1  0
  5 13  1  0
  5 14  1  0
  6 15  1  0
M  END
> <intraLJ>
0.516     

> <intraEL>
2.915     

> <intraDihe>
4.772     

> <interLJ>
0.000     

> <interEJ>
0.000     

> <gridLJ>
-2.053    

> <gridEL>
0.000     

> <totalE>
6.149     

> <LGFE>
-2.053  

> <LE>
-0.342  

> <SMILES>
C1COCCN1

> <atom.dprop.GFE>
-0.18 -0.2 -0.67 -0.3 -0.25 -0.46 0 0 0 0 0 0 0 0 0

> <atom.prop.CLASS>
PRPC PRPC GENA PRPC PRPC GEND NCLA NCLA NCLA NCLA NCLA NCLA NCLA NCLA NCLA

$$$$
