1
     RDKit          3D

  9  9  0  0  0  0  0  0  0  0999 V2000
    5.6643   -3.8914   -8.9642 Br  0  0  0  0  0  0  0  0  0  0  0  0
    4.7341   -2.6013   -9.9688 C   0  0  0  0  0  0  0  0  0  0  0  0
    3.9213   -2.8265  -11.0756 C   0  0  0  0  0  0  0  0  0  0  0  0
    3.4281   -1.7051  -11.5344 N   0  0  0  0  0  0  0  0  0  0  0  0
    3.9318   -0.7480  -10.7083 N   0  0  0  0  0  0  0  0  0  0  0  0
    4.7283   -1.2694   -9.7491 C   0  0  0  0  0  0  0  0  0  0  0  0
    3.7180   -3.7737  -11.5058 H   0  0  0  0  0  0  0  0  0  0  0  0
    3.7142    0.2608  -10.8232 H   0  0  0  0  0  0  0  0  0  0  0  0
    5.2082   -0.6756   -9.0157 H   0  0  0  0  0  0  0  0  0  0  0  0
  1  2  1  0
  2  3  1  0
  2  6  2  0
  3  4  2  0
  3  7  1  0
  4  5  1  0
  5  6  1  0
  5  8  1  0
  6  9  1  0
M  END
> <intraLJ>
-0.882    

> <intraEL>
0.676     

> <intraDihe>
0.000     

> <interLJ>
0.000     

> <interEJ>
0.000     

> <gridLJ>
-2.572    

> <gridEL>
0.000     

> <totalE>
-2.778    

> <LGFE>
-2.572  

> <LE>
-0.429  

> <SMILES>
Brc1cn[nH]c1

> <atom.dprop.GFE>
-0.4 0.018 -0.09 -1.2 -0.89 -0.038 0 0 0

> <atom.prop.CLASS>
GENA GEHC GEHC GENA GEND GEHC NCLA NCLA NCLA

$$$$
