52_1
     RDKit          3D

 10 10  0  0  0  0  0  0  0  0999 V2000
   17.8098   14.0228  -45.1194 C   0  0  0  0  0  0  0  0  0  0  0  0
   17.2717   12.9505  -46.0382 C   0  0  0  0  0  0  0  0  0  0  0  0
   17.7028   12.5986  -47.1908 N   0  0  0  0  0  0  0  0  0  0  0  0
   16.8833   11.5953  -47.6079 N   0  0  0  0  0  0  0  0  0  0  0  0
   15.9706   11.3509  -46.7109 N   0  0  0  0  0  0  0  0  0  0  0  0
   16.2254   12.2006  -45.7414 N   0  0  0  0  0  0  0  0  0  0  0  0
   18.6812   14.4715  -45.5982 H   0  0  0  0  0  0  0  0  0  0  0  0
   18.0920   13.5610  -44.1733 H   0  0  0  0  0  0  0  0  0  0  0  0
   17.0329   14.7723  -44.9685 H   0  0  0  0  0  0  0  0  0  0  0  0
   15.6687   12.2570  -44.8726 H   0  0  0  0  0  0  0  0  0  0  0  0
  1  2  1  0
  1  7  1  0
  1  8  1  0
  1  9  1  0
  2  3  2  0
  2  6  1  0
  3  4  1  0
  4  5  2  0
  5  6  1  0
  6 10  1  0
M  END
> <intraLJ>
-0.215    

> <intraEL>
-1.684    

> <intraDihe>
1.140     

> <interLJ>
0.000     

> <interEJ>
0.000     

> <gridLJ>
-2.550    

> <gridEL>
0.000     

> <totalE>
-3.309    

> <LGFE>
-2.550  

> <LE>
-0.425  

> <SMILES>
Cc1nnn[nH]1

> <atom.dprop.GFE>
-0.28 -0.17 -0.6 -0.49 -0.49 -0.51 0 0 0 0

> <atom.prop.CLASS>
PRPC GEHC GENA GENA GENA GEND NCLA NCLA NCLA NCLA

$$$$
