31_1
     RDKit          3D

 15 15  0  0  0  0  0  0  0  0999 V2000
   19.6806   -5.9129  -19.6859 O   0  0  0  0  0  0  0  0  0  0  0  0
   18.9196   -5.0078  -19.9988 C   0  0  0  0  0  0  0  0  0  0  0  0
   18.5732   -3.8670  -19.0049 C   0  0  0  0  0  0  0  0  0  0  0  0
   17.9085   -2.6584  -19.6026 N   0  0  0  0  0  0  0  0  0  0  0  0
   16.9299   -3.0822  -20.6391 C   0  0  0  0  0  0  0  0  0  0  0  0
   17.6302   -3.8799  -21.7535 C   0  0  0  0  0  0  0  0  0  0  0  0
   18.3184   -5.0400  -21.1885 N   0  0  0  0  0  0  0  0  0  0  0  0
   19.4909   -3.5666  -18.4978 H   0  0  0  0  0  0  0  0  0  0  0  0
   17.9041   -4.2929  -18.2579 H   0  0  0  0  0  0  0  0  0  0  0  0
   18.6162   -2.0699  -20.0259 H   0  0  0  0  0  0  0  0  0  0  0  0
   16.4502   -2.2031  -21.0738 H   0  0  0  0  0  0  0  0  0  0  0  0
   16.1566   -3.7057  -20.1849 H   0  0  0  0  0  0  0  0  0  0  0  0
   18.3512   -3.2339  -22.2569 H   0  0  0  0  0  0  0  0  0  0  0  0
   16.8843   -4.2095  -22.4790 H   0  0  0  0  0  0  0  0  0  0  0  0
   18.5426   -5.8291  -21.7718 H   0  0  0  0  0  0  0  0  0  0  0  0
  1  2  2  0
  2  3  1  0
  2  7  1  0
  3  4  1  0
  3  8  1  0
  3  9  1  0
  4  5  1  0
  4 10  1  0
  5  6  1  0
  5 11  1  0
  5 12  1  0
  6  7  1  0
  6 13  1  0
  6 14  1  0
  7 15  1  0
M  END
> <intraLJ>
0.615     

> <intraEL>
3.232     

> <intraDihe>
15.833    

> <interLJ>
0.000     

> <interEJ>
0.000     

> <gridLJ>
-2.637    

> <gridEL>
0.000     

> <totalE>
17.043    

> <LGFE>
-2.637  

> <LE>
-0.377  

> <SMILES>
O=C1CNCCN1

> <atom.dprop.GFE>
-0.57 0 -0.27 -0.78 -0.19 -0.2 -0.62 0 0 0 0 0 0 0 0

> <atom.prop.CLASS>
GENA NCLA PRPC GEND PRPC PRPC GEND NCLA NCLA NCLA NCLA NCLA NCLA NCLA NCLA

$$$$
