76_1
     RDKit          3D

 22 21  0  0  0  0  0  0  0  0999 V2000
   17.0672    6.9952   -4.3089 C   0  0  0  0  0  0  0  0  0  0  0  0
   17.6255    6.8895   -5.7337 C   0  0  0  0  0  0  0  0  0  0  0  0
   17.1026    5.5948   -6.3754 C   0  0  0  0  0  0  0  0  0  0  0  0
   19.1642    6.9440   -5.6818 C   0  0  0  0  0  0  0  0  0  0  0  0
   19.8194    7.0161   -7.0715 C   0  0  0  0  0  0  0  0  0  0  0  0
   21.3389    7.1158   -6.9536 C   0  0  0  0  0  0  0  0  0  0  0  0
   21.9371    7.1925   -8.2984 N   0  0  0  0  0  0  0  0  0  0  0  0
   15.9775    6.9921   -4.3351 H   0  0  0  0  0  0  0  0  0  0  0  0
   17.3988    7.9272   -3.8471 H   0  0  0  0  0  0  0  0  0  0  0  0
   17.4117    6.1555   -3.7037 H   0  0  0  0  0  0  0  0  0  0  0  0
   17.2602    7.7416   -6.3125 H   0  0  0  0  0  0  0  0  0  0  0  0
   17.5037    4.7262   -5.8512 H   0  0  0  0  0  0  0  0  0  0  0  0
   17.3919    5.5478   -7.4247 H   0  0  0  0  0  0  0  0  0  0  0  0
   16.0127    5.5698   -6.3247 H   0  0  0  0  0  0  0  0  0  0  0  0
   19.5385    6.0651   -5.1524 H   0  0  0  0  0  0  0  0  0  0  0  0
   19.4590    7.8301   -5.1173 H   0  0  0  0  0  0  0  0  0  0  0  0
   19.4520    7.8948   -7.6044 H   0  0  0  0  0  0  0  0  0  0  0  0
   19.5724    6.1254   -7.6472 H   0  0  0  0  0  0  0  0  0  0  0  0
   21.7192    6.2391   -6.4239 H   0  0  0  0  0  0  0  0  0  0  0  0
   21.5991    8.0114   -6.3852 H   0  0  0  0  0  0  0  0  0  0  0  0
   21.6892    6.3737   -8.8380 H   0  0  0  0  0  0  0  0  0  0  0  0
   22.9433    7.2630   -8.2348 H   0  0  0  0  0  0  0  0  0  0  0  0
  1  2  1  0
  1  8  1  0
  1  9  1  0
  1 10  1  0
  2  3  1  0
  2  4  1  0
  2 11  1  0
  3 12  1  0
  3 13  1  0
  3 14  1  0
  4  5  1  0
  4 15  1  0
  4 16  1  0
  5  6  1  0
  5 17  1  0
  5 18  1  0
  6  7  1  0
  6 19  1  0
  6 20  1  0
  7 21  1  0
  7 22  1  0
M  END
> <intraLJ>
-0.181    

> <intraEL>
-1.009    

> <intraDihe>
0.154     

> <interLJ>
0.000     

> <interEJ>
0.000     

> <gridLJ>
-4.027    

> <gridEL>
0.000     

> <totalE>
-5.062    

> <LGFE>
-4.027  

> <LE>
-0.575  

> <SMILES>
CC(C)CCCN

> <atom.dprop.GFE>
-0.53 -0.56 -0.45 -0.47 -0.46 -0.29 -1.3 0 0 0 0 0 0 0 0 0 0 0 0 0 0 0

> <atom.prop.CLASS>
PRPC PRPC PRPC PRPC PRPC PRPC GEND NCLA NCLA NCLA NCLA NCLA NCLA NCLA NCLA NCLA NCLA NCLA NCLA NCLA NCLA NCLA

$$$$
