52_1
     RDKit          3D

 10 10  0  0  0  0  0  0  0  0999 V2000
    5.4077   -6.2459    4.1918 C   0  0  0  0  0  0  0  0  0  0  0  0
    6.4567   -5.7823    3.2078 C   0  0  0  0  0  0  0  0  0  0  0  0
    7.7305   -5.8627    3.3040 N   0  0  0  0  0  0  0  0  0  0  0  0
    8.2287   -5.3079    2.1655 N   0  0  0  0  0  0  0  0  0  0  0  0
    7.2595   -4.8999    1.3965 N   0  0  0  0  0  0  0  0  0  0  0  0
    6.1647   -5.2020    2.0576 N   0  0  0  0  0  0  0  0  0  0  0  0
    5.9191   -6.7021    5.0405 H   0  0  0  0  0  0  0  0  0  0  0  0
    4.7659   -6.9756    3.6981 H   0  0  0  0  0  0  0  0  0  0  0  0
    4.8312   -5.3802    4.5179 H   0  0  0  0  0  0  0  0  0  0  0  0
    5.2137   -5.0028    1.7057 H   0  0  0  0  0  0  0  0  0  0  0  0
  1  2  1  0
  1  7  1  0
  1  8  1  0
  1  9  1  0
  2  3  2  0
  2  6  1  0
  3  4  1  0
  4  5  2  0
  5  6  1  0
  6 10  1  0
M  END
> <intraLJ>
-0.215    

> <intraEL>
-1.684    

> <intraDihe>
1.140     

> <interLJ>
0.000     

> <interEJ>
0.000     

> <gridLJ>
-5.848    

> <gridEL>
0.000     

> <totalE>
-6.607    

> <LGFE>
-5.848  

> <LE>
-0.975  

> <SMILES>
Cc1nnn[nH]1

> <atom.dprop.GFE>
-0.16 -0.37 -1.5 -1.2 -1.5 -1.2 0 0 0 0

> <atom.prop.CLASS>
PRPC GEHC GENA GENA GENA GEND NCLA NCLA NCLA NCLA

$$$$
