36_2
     RDKit          3D

 14 14  0  0  0  0  0  0  0  0999 V2000
  -31.0855   16.2861   27.8741 N   0  0  0  0  0  0  0  0  0  0  0  0
  -29.7014   16.7503   27.7857 C   0  0  0  0  0  0  0  0  0  0  0  0
  -29.2811   16.3059   26.3969 C   0  0  0  0  0  0  0  0  0  0  0  0
  -29.1738   17.0725   25.2988 C   0  0  0  0  0  0  0  0  0  0  0  0
  -28.7938   16.3020   24.2969 O   0  0  0  0  0  0  0  0  0  0  0  0
  -28.6814   15.0683   24.8107 C   0  0  0  0  0  0  0  0  0  0  0  0
  -28.9616   15.0153   26.0698 N   0  0  0  0  0  0  0  0  0  0  0  0
  -31.6175   16.8498   28.5180 H   0  0  0  0  0  0  0  0  0  0  0  0
  -31.0807   15.3061   28.1124 H   0  0  0  0  0  0  0  0  0  0  0  0
  -31.4220   16.3588   26.9141 H   0  0  0  0  0  0  0  0  0  0  0  0
  -29.0759   16.2727   28.5305 H   0  0  0  0  0  0  0  0  0  0  0  0
  -29.6629   17.8341   27.8170 H   0  0  0  0  0  0  0  0  0  0  0  0
  -29.3397   18.1109   25.1490 H   0  0  0  0  0  0  0  0  0  0  0  0
  -28.3854   14.2689   24.1757 H   0  0  0  0  0  0  0  0  0  0  0  0
  1  2  1  0
  1  8  1  0
  1  9  1  0
  1 10  1  0
  2  3  1  0
  2 11  1  0
  2 12  1  0
  3  4  2  0
  3  7  1  0
  4  5  1  0
  4 13  1  0
  5  6  1  0
  6  7  2  0
  6 14  1  0
M  CHG  1   1   1
M  END
> <intraLJ>
0.663     

> <intraEL>
5.063     

> <intraDihe>
12.053    

> <interLJ>
0.000     

> <interEJ>
0.000     

> <gridLJ>
-2.949    

> <gridEL>
0.000     

> <totalE>
14.830    

> <LGFE>
-2.949  

> <LE>
-0.421  

> <SMILES>
[NH3+]Cc1cocn1

> <atom.dprop.GFE>
-0.79 -0.29 -0.066 -0.1 -0.56 -0.14 -1 0 0 0 0 0 0 0

> <atom.prop.CLASS>
MAMN PRPC GEHC GEHC GENA GEHC GENA NCLA NCLA NCLA NCLA NCLA NCLA NCLA

$$$$
