54_1
     RDKit          3D

 11 10  0  0  0  0  0  0  0  0999 V2000
  -15.1015    8.2919  -15.3402 C   0  0  0  0  0  0  0  0  0  0  0  0
  -14.1751    7.2476  -15.9858 C   0  0  0  0  0  0  0  0  0  0  0  0
  -14.8548    6.4662  -17.1058 C   0  0  0  0  0  0  0  0  0  0  0  0
  -16.0049    6.6249  -17.4801 O   0  0  0  0  0  0  0  0  0  0  0  0
  -14.0871    5.5396  -17.7068 O   0  0  0  0  0  0  0  0  0  0  0  0
  -14.5702    8.8139  -14.5435 H   0  0  0  0  0  0  0  0  0  0  0  0
  -15.9792    7.7968  -14.9217 H   0  0  0  0  0  0  0  0  0  0  0  0
  -15.4229    9.0160  -16.0919 H   0  0  0  0  0  0  0  0  0  0  0  0
  -13.8511    6.5359  -15.2270 H   0  0  0  0  0  0  0  0  0  0  0  0
  -13.2955    7.7472  -16.3896 H   0  0  0  0  0  0  0  0  0  0  0  0
  -14.6572    5.1623  -18.3761 H   0  0  0  0  0  0  0  0  0  0  0  0
  1  2  1  0
  1  6  1  0
  1  7  1  0
  1  8  1  0
  2  3  1  0
  2  9  1  0
  2 10  1  0
  3  4  2  0
  3  5  1  0
  5 11  1  0
M  END
> <intraLJ>
-0.349    

> <intraEL>
-3.551    

> <intraDihe>
0.002     

> <interLJ>
0.000     

> <interEJ>
0.000     

> <gridLJ>
-2.737    

> <gridEL>
0.000     

> <totalE>
-6.635    

> <LGFE>
-2.737  

> <LE>
-0.547  

> <SMILES>
CCC(=O)O

> <atom.dprop.GFE>
-0.54 -0.31 0 -1 -0.87 0 0 0 0 0 0

> <atom.prop.CLASS>
PRPC PRPC NCLA GENA MEOO NCLA NCLA NCLA NCLA NCLA NCLA

$$$$
