11_1
     RDKit          3D

 11 11  0  0  0  0  0  0  0  0999 V2000
   22.7897   13.2444   -4.3415 O   0  0  0  0  0  0  0  0  0  0  0  0
   21.8318   13.8310   -4.8032 C   0  0  0  0  0  0  0  0  0  0  0  0
   20.4698   13.2872   -5.0904 C   0  0  0  0  0  0  0  0  0  0  0  0
   19.6644   14.6003   -5.1819 C   0  0  0  0  0  0  0  0  0  0  0  0
   20.6470   15.6197   -5.5636 O   0  0  0  0  0  0  0  0  0  0  0  0
   21.8763   15.1242   -5.1217 N   0  0  0  0  0  0  0  0  0  0  0  0
   20.1232   12.6621   -4.2803 H   0  0  0  0  0  0  0  0  0  0  0  0
   20.4946   12.8099   -6.0583 H   0  0  0  0  0  0  0  0  0  0  0  0
   19.2483   14.8529   -4.2049 H   0  0  0  0  0  0  0  0  0  0  0  0
   18.8672   14.5292   -5.9239 H   0  0  0  0  0  0  0  0  0  0  0  0
   22.7240   15.7031   -5.0233 H   0  0  0  0  0  0  0  0  0  0  0  0
  1  2  2  0
  2  3  1  0
  2  6  1  0
  3  4  1  0
  3  7  1  0
  3  8  1  0
  4  5  1  0
  4  9  1  0
  4 10  1  0
  5  6  1  0
  6 11  1  0
M  END
> <intraLJ>
-0.418    

> <intraEL>
-2.154    

> <intraDihe>
5.561     

> <interLJ>
0.000     

> <interEJ>
0.000     

> <gridLJ>
-3.753    

> <gridEL>
0.000     

> <totalE>
-0.764    

> <LGFE>
-3.753  

> <LE>
-0.626  

> <SMILES>
O=C1CCON1

> <atom.dprop.GFE>
-0.75 -0.19 -0.55 -0.67 -1.1 -0.49 0 0 0 0 0

> <atom.prop.CLASS>
GENA GEHC PRPC PRPC GENA GEND NCLA NCLA NCLA NCLA NCLA

$$$$
