19_1
     RDKit          3D

 11 11  0  0  0  0  0  0  0  0999 V2000
  -18.2454   -5.8425   26.2319 N   0  0  0  0  0  0  0  0  0  0  0  0
  -18.0949   -4.6067   25.6469 C   0  0  0  0  0  0  0  0  0  0  0  0
  -16.9373   -3.8494   25.5293 C   0  0  0  0  0  0  0  0  0  0  0  0
  -17.2963   -2.7306   24.8632 C   0  0  0  0  0  0  0  0  0  0  0  0
  -18.6228   -2.8676   24.6178 N   0  0  0  0  0  0  0  0  0  0  0  0
  -19.1259   -4.0494   25.1036 N   0  0  0  0  0  0  0  0  0  0  0  0
  -19.1439   -6.2146   25.8991 H   0  0  0  0  0  0  0  0  0  0  0  0
  -17.4600   -6.4505   25.9770 H   0  0  0  0  0  0  0  0  0  0  0  0
  -15.9764   -4.1004   25.8948 H   0  0  0  0  0  0  0  0  0  0  0  0
  -16.7412   -1.8820   24.5588 H   0  0  0  0  0  0  0  0  0  0  0  0
  -19.2055   -2.1683   24.1209 H   0  0  0  0  0  0  0  0  0  0  0  0
  1  2  1  0
  1  7  1  0
  1  8  1  0
  2  3  1  0
  2  6  2  0
  3  4  2  0
  3  9  1  0
  4  5  1  0
  4 10  1  0
  5  6  1  0
  5 11  1  0
M  END
> <intraLJ>
-0.199    

> <intraEL>
-8.716    

> <intraDihe>
2.079     

> <interLJ>
0.000     

> <interEJ>
0.000     

> <gridLJ>
-3.742    

> <gridEL>
0.000     

> <totalE>
-10.577   

> <LGFE>
-3.742  

> <LE>
-0.624  

> <SMILES>
Nc1cc[nH]n1

> <atom.dprop.GFE>
-0.84 -0.18 -0.097 -0.14 -0.98 -1.5 0 0 0 0 0

> <atom.prop.CLASS>
GEND GEHC GEHC GEHC GEND GENA NCLA NCLA NCLA NCLA NCLA

$$$$
