2_1
     RDKit          3D

 15 15  0  0  0  0  0  0  0  0999 V2000
   12.2602    6.3131  -41.7028 C   0  0  0  0  0  0  0  0  0  0  0  0
   11.7512    7.4107  -40.7502 C   0  0  0  0  0  0  0  0  0  0  0  0
   10.8604    8.3025  -41.4224 O   0  0  0  0  0  0  0  0  0  0  0  0
   11.4856    8.9221  -42.5476 C   0  0  0  0  0  0  0  0  0  0  0  0
   11.9872    7.8684  -43.5531 C   0  0  0  0  0  0  0  0  0  0  0  0
   12.9073    6.8945  -42.9087 N   0  0  0  0  0  0  0  0  0  0  0  0
   11.4054    5.7027  -42.0014 H   0  0  0  0  0  0  0  0  0  0  0  0
   12.9708    5.6793  -41.1709 H   0  0  0  0  0  0  0  0  0  0  0  0
   12.6058    7.9676  -40.3640 H   0  0  0  0  0  0  0  0  0  0  0  0
   11.2300    6.9464  -39.9126 H   0  0  0  0  0  0  0  0  0  0  0  0
   12.3329    9.5222  -42.2135 H   0  0  0  0  0  0  0  0  0  0  0  0
   10.7682    9.5767  -43.0429 H   0  0  0  0  0  0  0  0  0  0  0  0
   12.4982    8.3727  -44.3741 H   0  0  0  0  0  0  0  0  0  0  0  0
   11.1180    7.3435  -43.9550 H   0  0  0  0  0  0  0  0  0  0  0  0
   13.1799    6.1677  -43.5603 H   0  0  0  0  0  0  0  0  0  0  0  0
  1  2  1  0
  1  6  1  0
  1  7  1  0
  1  8  1  0
  2  3  1  0
  2  9  1  0
  2 10  1  0
  3  4  1  0
  4  5  1  0
  4 11  1  0
  4 12  1  0
  5  6  1  0
  5 13  1  0
  5 14  1  0
  6 15  1  0
M  END
> <intraLJ>
0.516     

> <intraEL>
2.915     

> <intraDihe>
4.772     

> <interLJ>
0.000     

> <interEJ>
0.000     

> <gridLJ>
-2.810    

> <gridEL>
0.000     

> <totalE>
5.393     

> <LGFE>
-2.810  

> <LE>
-0.468  

> <SMILES>
C1COCCN1

> <atom.dprop.GFE>
-0.21 -0.24 -1.2 -0.27 -0.23 -0.69 0 0 0 0 0 0 0 0 0

> <atom.prop.CLASS>
PRPC PRPC GENA PRPC PRPC GEND NCLA NCLA NCLA NCLA NCLA NCLA NCLA NCLA NCLA

$$$$
