33
     RDKit          3D

 12 12  0  0  0  0  0  0  0  0999 V2000
  -21.1826    5.8322   -6.5824 N   0  0  0  0  0  0  0  0  0  0  0  0
  -21.1149    5.9488   -7.9432 C   0  0  0  0  0  0  0  0  0  0  0  0
  -20.1987    6.7942   -8.5528 C   0  0  0  0  0  0  0  0  0  0  0  0
  -20.2094    6.8564   -9.9374 C   0  0  0  0  0  0  0  0  0  0  0  0
  -21.1284    6.0765  -10.6261 C   0  0  0  0  0  0  0  0  0  0  0  0
  -21.9895    5.2770   -9.9770 N   0  0  0  0  0  0  0  0  0  0  0  0
  -21.9867    5.2099   -8.6455 N   0  0  0  0  0  0  0  0  0  0  0  0
  -22.0498    5.3752   -6.2705 H   0  0  0  0  0  0  0  0  0  0  0  0
  -20.9021    6.6649   -6.0516 H   0  0  0  0  0  0  0  0  0  0  0  0
  -19.5172    7.3610   -7.9755 H   0  0  0  0  0  0  0  0  0  0  0  0
  -19.5333    7.4810  -10.4612 H   0  0  0  0  0  0  0  0  0  0  0  0
  -21.1714    6.0929  -11.6847 H   0  0  0  0  0  0  0  0  0  0  0  0
  1  2  1  0
  1  8  1  0
  1  9  1  0
  2  3  2  0
  2  7  1  0
  3  4  1  0
  3 10  1  0
  4  5  2  0
  4 11  1  0
  5  6  1  0
  5 12  1  0
  6  7  2  0
M  END
> <intraLJ>
16.642    

> <intraEL>
-7.622    

> <intraDihe>
1.828     

> <interLJ>
0.000     

> <interEJ>
0.000     

> <gridLJ>
-3.559    

> <gridEL>
0.000     

> <totalE>
7.289     

> <LGFE>
-3.559  

> <LE>
-0.508  

> <SMILES>
Nc1cccnn1

> <atom.dprop.GFE>
-0.81 -0.14 -0.16 -0.19 -0.26 -1.1 -0.95 0 0 0 0 0

> <atom.prop.CLASS>
GEND GEHC BENC BENC BENC GENA GENA NCLA NCLA NCLA NCLA NCLA

$$$$
