52_1
     RDKit          3D

 10 10  0  0  0  0  0  0  0  0999 V2000
  -10.3234   -0.0853   13.7568 C   0  0  0  0  0  0  0  0  0  0  0  0
   -9.7635    1.2215   14.2688 C   0  0  0  0  0  0  0  0  0  0  0  0
   -8.5381    1.5586   14.4204 N   0  0  0  0  0  0  0  0  0  0  0  0
   -8.5558    2.8290   14.9081 N   0  0  0  0  0  0  0  0  0  0  0  0
   -9.7823    3.2462   15.0461 N   0  0  0  0  0  0  0  0  0  0  0  0
  -10.5211    2.2364   14.6445 N   0  0  0  0  0  0  0  0  0  0  0  0
   -9.4851   -0.7354   13.5029 H   0  0  0  0  0  0  0  0  0  0  0  0
  -10.9279    0.1177   12.8728 H   0  0  0  0  0  0  0  0  0  0  0  0
  -10.9273   -0.5363   14.5443 H   0  0  0  0  0  0  0  0  0  0  0  0
  -11.5542    2.2558   14.6328 H   0  0  0  0  0  0  0  0  0  0  0  0
  1  2  1  0
  1  7  1  0
  1  8  1  0
  1  9  1  0
  2  3  2  0
  2  6  1  0
  3  4  1  0
  4  5  2  0
  5  6  1  0
  6 10  1  0
M  END
> <intraLJ>
-0.215    

> <intraEL>
-1.684    

> <intraDihe>
1.140     

> <interLJ>
0.000     

> <interEJ>
0.000     

> <gridLJ>
-2.118    

> <gridEL>
0.000     

> <totalE>
-2.877    

> <LGFE>
-2.118  

> <LE>
-0.353  

> <SMILES>
Cc1nnn[nH]1

> <atom.dprop.GFE>
-0.31 -0.093 -0.36 -0.44 -0.35 -0.57 0 0 0 0

> <atom.prop.CLASS>
PRPC GEHC GENA GENA GENA GEND NCLA NCLA NCLA NCLA

$$$$
