39_1
     RDKit          3D

 11 11  0  0  0  0  0  0  0  0999 V2000
  -24.5528   -4.4624   31.3904 O   0  0  0  0  0  0  0  0  0  0  0  0
  -25.7649   -4.2539   31.2992 C   0  0  0  0  0  0  0  0  0  0  0  0
  -26.6640   -4.8545   30.3677 C   0  0  0  0  0  0  0  0  0  0  0  0
  -27.9869   -4.5148   30.3956 C   0  0  0  0  0  0  0  0  0  0  0  0
  -28.4595   -3.5655   31.3502 C   0  0  0  0  0  0  0  0  0  0  0  0
  -27.6551   -3.0101   32.2056 N   0  0  0  0  0  0  0  0  0  0  0  0
  -26.3200   -3.3511   32.1804 N   0  0  0  0  0  0  0  0  0  0  0  0
  -26.2745   -5.5535   29.6751 H   0  0  0  0  0  0  0  0  0  0  0  0
  -28.6745   -4.9460   29.7146 H   0  0  0  0  0  0  0  0  0  0  0  0
  -29.4865   -3.3048   31.3675 H   0  0  0  0  0  0  0  0  0  0  0  0
  -25.6677   -2.9157   32.8553 H   0  0  0  0  0  0  0  0  0  0  0  0
  1  2  2  0
  2  3  1  0
  2  7  1  0
  3  4  2  0
  3  8  1  0
  4  5  1  0
  4  9  1  0
  5  6  2  0
  5 10  1  0
  6  7  1  0
  7 11  1  0
M  END
> <intraLJ>
10.206    

> <intraEL>
-0.642    

> <intraDihe>
0.000     

> <interLJ>
0.000     

> <interEJ>
0.000     

> <gridLJ>
-2.110    

> <gridEL>
0.000     

> <totalE>
7.455     

> <LGFE>
-2.110  

> <LE>
-0.301  

> <SMILES>
O=c1cccn[nH]1

> <atom.dprop.GFE>
-0.68 -0.21 -0.16 -0.14 -0.11 -0.43 -0.37 0 0 0 0

> <atom.prop.CLASS>
GENA GEHC BENC BENC BENC GENA GEND NCLA NCLA NCLA NCLA

$$$$
