57_1
     RDKit          3D

 15 15  0  0  0  0  0  0  0  0999 V2000
  -22.8312    3.0629   22.4531 O   0  0  0  0  0  0  0  0  0  0  0  0
  -21.8462    2.5296   23.1194 C   0  0  0  0  0  0  0  0  0  0  0  0
  -22.0038    2.5360   24.3097 O   0  0  0  0  0  0  0  0  0  0  0  0
  -20.6481    1.9731   22.3708 C   0  0  0  0  0  0  0  0  0  0  0  0
  -20.9902    0.7444   21.4807 C   0  0  0  0  0  0  0  0  0  0  0  0
  -19.6313    0.1463   21.9519 C   0  0  0  0  0  0  0  0  0  0  0  0
  -19.7637    1.0269   23.2306 C   0  0  0  0  0  0  0  0  0  0  0  0
  -23.4199    3.3131   23.1672 H   0  0  0  0  0  0  0  0  0  0  0  0
  -20.0930    2.7485   21.8564 H   0  0  0  0  0  0  0  0  0  0  0  0
  -21.0344    0.9649   20.4231 H   0  0  0  0  0  0  0  0  0  0  0  0
  -21.8379    0.1742   21.8385 H   0  0  0  0  0  0  0  0  0  0  0  0
  -18.8036    0.4480   21.3228 H   0  0  0  0  0  0  0  0  0  0  0  0
  -19.6609   -0.9176   22.1435 H   0  0  0  0  0  0  0  0  0  0  0  0
  -20.3061    0.5252   24.0219 H   0  0  0  0  0  0  0  0  0  0  0  0
  -18.8333    1.4702   23.5595 H   0  0  0  0  0  0  0  0  0  0  0  0
  1  2  1  0
  1  8  1  0
  2  3  2  0
  2  4  1  0
  4  5  1  0
  4  7  1  0
  4  9  1  0
  5  6  1  0
  5 10  1  0
  5 11  1  0
  6  7  1  0
  6 12  1  0
  6 13  1  0
  7 14  1  0
  7 15  1  0
M  END
> <intraLJ>
-0.769    

> <intraEL>
-1.742    

> <intraDihe>
17.647    

> <interLJ>
0.000     

> <interEJ>
0.000     

> <gridLJ>
-4.616    

> <gridEL>
0.000     

> <totalE>
10.519    

> <LGFE>
-4.616  

> <LE>
-0.659  

> <SMILES>
O=C(O)C1CCC1

> <atom.dprop.GFE>
-1.6 0 -1.7 -0.24 -0.29 -0.38 -0.38 0 0 0 0 0 0 0 0

> <atom.prop.CLASS>
MEOO NCLA GENA PRPC PRPC PRPC PRPC NCLA NCLA NCLA NCLA NCLA NCLA NCLA NCLA

$$$$
