12
     RDKit          3D

 10 10  0  0  0  0  0  0  0  0999 V2000
  -20.5042   -8.1182   27.7025 N   0  0  0  0  0  0  0  0  0  0  0  0
  -20.1114   -7.2322   27.0937 C   0  0  0  0  0  0  0  0  0  0  0  0
  -19.5951   -6.1089   26.3418 C   0  0  0  0  0  0  0  0  0  0  0  0
  -18.4789   -5.3958   26.6498 C   0  0  0  0  0  0  0  0  0  0  0  0
  -18.3650   -4.4544   25.7008 N   0  0  0  0  0  0  0  0  0  0  0  0
  -19.3979   -4.6057   24.8423 C   0  0  0  0  0  0  0  0  0  0  0  0
  -20.1603   -5.5957   25.1985 N   0  0  0  0  0  0  0  0  0  0  0  0
  -17.7892   -5.4948   27.4490 H   0  0  0  0  0  0  0  0  0  0  0  0
  -17.6239   -3.7345   25.6275 H   0  0  0  0  0  0  0  0  0  0  0  0
  -19.5112   -3.9636   24.0050 H   0  0  0  0  0  0  0  0  0  0  0  0
  1  2  3  0
  2  3  1  0
  3  4  2  0
  3  7  1  0
  4  5  1  0
  4  8  1  0
  5  6  1  0
  5  9  1  0
  6  7  2  0
  6 10  1  0
M  END
> <intraLJ>
-0.793    

> <intraEL>
2.828     

> <intraDihe>
0.000     

> <interLJ>
0.000     

> <interEJ>
0.000     

> <gridLJ>
-3.911    

> <gridEL>
0.000     

> <totalE>
-1.875    

> <LGFE>
-3.911  

> <LE>
-0.559  

> <SMILES>
N#Cc1c[nH]cn1

> <atom.dprop.GFE>
-0.74 0 -0.26 -0.19 -1 -0.22 -1.5 0 0 0

> <atom.prop.CLASS>
GENA NCLA GEHC GEHC GEND GEHC GENA NCLA NCLA NCLA

$$$$
