13
     RDKit          3D

 13 12  0  0  0  0  0  0  0  0999 V2000
  -22.0144    8.1215   -9.0073 C   0  0  0  0  0  0  0  0  0  0  0  0
  -21.3141    7.4910  -10.2300 C   0  0  0  0  0  0  0  0  0  0  0  0
  -21.2294    5.9981   -9.9895 C   0  0  0  0  0  0  0  0  0  0  0  0
  -21.9863    5.1967  -10.5143 O   0  0  0  0  0  0  0  0  0  0  0  0
  -20.2523    5.5336   -9.1693 N   0  0  0  0  0  0  0  0  0  0  0  0
  -20.1300    4.1501   -8.9286 O   0  0  0  0  0  0  0  0  0  0  0  0
  -22.0599    9.2007   -9.1572 H   0  0  0  0  0  0  0  0  0  0  0  0
  -21.4291    7.8923   -8.1142 H   0  0  0  0  0  0  0  0  0  0  0  0
  -23.0220    7.7108   -8.9152 H   0  0  0  0  0  0  0  0  0  0  0  0
  -20.3072    7.8796  -10.2981 H   0  0  0  0  0  0  0  0  0  0  0  0
  -21.9007    7.6805  -11.1184 H   0  0  0  0  0  0  0  0  0  0  0  0
  -19.5748    6.1638   -8.7104 H   0  0  0  0  0  0  0  0  0  0  0  0
  -20.8523    3.7398   -9.4645 H   0  0  0  0  0  0  0  0  0  0  0  0
  1  2  1  0
  1  7  1  0
  1  8  1  0
  1  9  1  0
  2  3  1  0
  2 10  1  0
  2 11  1  0
  3  4  2  0
  3  5  1  0
  5  6  1  0
  5 12  1  0
  6 13  1  0
M  END
> <intraLJ>
0.072     

> <intraEL>
2.380     

> <intraDihe>
5.917     

> <interLJ>
0.000     

> <interEJ>
0.000     

> <gridLJ>
-3.209    

> <gridEL>
0.000     

> <totalE>
5.160     

> <LGFE>
-3.209  

> <LE>
-0.535  

> <SMILES>
CCC(=O)NO

> <atom.dprop.GFE>
-0.28 -0.29 0 -1.1 -0.8 -0.78 0 0 0 0 0 0 0

> <atom.prop.CLASS>
PRPC PRPC NCLA GENA GEND MEOO NCLA NCLA NCLA NCLA NCLA NCLA NCLA

$$$$
