49_1
     RDKit          3D

 18 18  0  0  1  0  0  0  0  0999 V2000
   19.7729   -1.5782  -36.1518 O   0  0  0  0  0  0  0  0  0  0  0  0
   19.5355   -1.3012  -34.7766 C   0  0  0  0  0  0  0  0  0  0  0  0
   18.0291   -1.2834  -34.4761 C   0  0  0  0  0  0  0  0  0  0  0  0
   17.6881   -1.0062  -33.0131 C   0  0  0  0  0  0  0  0  0  0  0  0
   16.3116   -1.6704  -32.8245 C   0  0  0  0  0  0  0  0  0  0  0  0
   16.0605   -2.4152  -34.1356 C   0  0  0  0  0  0  0  0  0  0  0  0
   17.3850   -2.5747  -34.7519 N   0  0  0  0  0  0  0  0  0  0  0  0
   20.6910   -1.8357  -36.2694 H   0  0  0  0  0  0  0  0  0  0  0  0
   20.0038   -2.0642  -34.1537 H   0  0  0  0  0  0  0  0  0  0  0  0
   19.9588   -0.3274  -34.5279 H   0  0  0  0  0  0  0  0  0  0  0  0
   17.5636   -0.5080  -35.0887 H   0  0  0  0  0  0  0  0  0  0  0  0
   18.4158   -1.4960  -32.3650 H   0  0  0  0  0  0  0  0  0  0  0  0
   17.6530    0.0655  -32.8138 H   0  0  0  0  0  0  0  0  0  0  0  0
   15.5315   -0.9289  -32.6533 H   0  0  0  0  0  0  0  0  0  0  0  0
   16.3538   -2.3789  -31.9966 H   0  0  0  0  0  0  0  0  0  0  0  0
   15.4306   -1.7944  -34.7768 H   0  0  0  0  0  0  0  0  0  0  0  0
   15.5753   -3.3787  -33.9674 H   0  0  0  0  0  0  0  0  0  0  0  0
   17.3539   -2.7631  -35.7474 H   0  0  0  0  0  0  0  0  0  0  0  0
  1  2  1  0
  1  8  1  0
  2  3  1  0
  2  9  1  0
  2 10  1  0
  3  4  1  0
  3  7  1  0
  3 11  1  0
  4  5  1  0
  4 12  1  0
  4 13  1  0
  5  6  1  0
  5 14  1  0
  5 15  1  0
  6  7  1  0
  6 16  1  0
  6 17  1  0
  7 18  1  0
M  END
> <intraLJ>
0.339     

> <intraEL>
1.559     

> <intraDihe>
11.867    

> <interLJ>
0.000     

> <interEJ>
0.000     

> <gridLJ>
-3.440    

> <gridEL>
0.000     

> <totalE>
10.325    

> <LGFE>
-3.440  

> <LE>
-0.491  

> <SMILES>
OCC1CCCN1

> <atom.dprop.GFE>
-0.91 -0.3 -0.38 -0.42 -0.49 -0.43 -0.51 0 0 0 0 0 0 0 0 0 0 0

> <atom.prop.CLASS>
MEOO PRPC PRPC PRPC PRPC PRPC GEND NCLA NCLA NCLA NCLA NCLA NCLA NCLA NCLA NCLA NCLA NCLA

$$$$
