67
     RDKit          3D

 15 15  0  0  1  0  0  0  0  0999 V2000
   12.3739   17.0713  -29.5006 O   0  0  0  0  0  0  0  0  0  0  0  0
   13.7238   16.6174  -29.6149 C   0  0  0  0  0  0  0  0  0  0  0  0
   14.7280   17.5149  -28.8967 C   0  0  0  0  0  0  0  0  0  0  0  0
   15.8658   16.6905  -28.7248 O   0  0  0  0  0  0  0  0  0  0  0  0
   15.3925   15.3942  -28.3794 C   0  0  0  0  0  0  0  0  0  0  0  0
   13.9511   15.2780  -28.8950 C   0  0  0  0  0  0  0  0  0  0  0  0
   13.0423   15.1510  -27.8142 O   0  0  0  0  0  0  0  0  0  0  0  0
   12.2620   17.8737  -30.0211 H   0  0  0  0  0  0  0  0  0  0  0  0
   14.0145   16.5167  -30.6620 H   0  0  0  0  0  0  0  0  0  0  0  0
   14.3306   17.8101  -27.9238 H   0  0  0  0  0  0  0  0  0  0  0  0
   14.9702   18.3958  -29.4923 H   0  0  0  0  0  0  0  0  0  0  0  0
   16.0241   14.6303  -28.8344 H   0  0  0  0  0  0  0  0  0  0  0  0
   15.4020   15.2744  -27.2946 H   0  0  0  0  0  0  0  0  0  0  0  0
   13.8474   14.4445  -29.5910 H   0  0  0  0  0  0  0  0  0  0  0  0
   12.3003   15.7287  -28.0504 H   0  0  0  0  0  0  0  0  0  0  0  0
  1  2  1  0
  1  8  1  0
  2  3  1  0
  2  6  1  0
  2  9  1  0
  3  4  1  0
  3 10  1  0
  3 11  1  0
  4  5  1  0
  5  6  1  0
  5 12  1  0
  5 13  1  0
  6  7  1  0
  6 14  1  0
  7 15  1  0
M  END
> <intraLJ>
4.089     

> <intraEL>
1.909     

> <intraDihe>
14.436    

> <interLJ>
0.000     

> <interEJ>
0.000     

> <gridLJ>
-3.024    

> <gridEL>
0.000     

> <totalE>
17.410    

> <LGFE>
-3.024  

> <LE>
-0.432  

> <SMILES>
OC1COCC1O

> <atom.dprop.GFE>
-0.32 -0.2 -0.15 -1.2 -0.29 -0.37 -0.49 0 0 0 0 0 0 0 0

> <atom.prop.CLASS>
MEOO PRPC PRPC GENA PRPC PRPC MEOO NCLA NCLA NCLA NCLA NCLA NCLA NCLA NCLA

$$$$
