13
     RDKit          3D

 13 12  0  0  0  0  0  0  0  0999 V2000
  -30.0644   13.1720   16.4791 C   0  0  0  0  0  0  0  0  0  0  0  0
  -28.8504   14.1195   16.5868 C   0  0  0  0  0  0  0  0  0  0  0  0
  -28.2878   13.9853   17.9865 C   0  0  0  0  0  0  0  0  0  0  0  0
  -27.2808   13.3428   18.2389 O   0  0  0  0  0  0  0  0  0  0  0  0
  -28.9238   14.6280   18.9992 N   0  0  0  0  0  0  0  0  0  0  0  0
  -28.4261   14.5401   20.3151 O   0  0  0  0  0  0  0  0  0  0  0  0
  -30.4940   13.2774   15.4823 H   0  0  0  0  0  0  0  0  0  0  0  0
  -30.7985   13.4593   17.2350 H   0  0  0  0  0  0  0  0  0  0  0  0
  -29.7366   12.1432   16.6416 H   0  0  0  0  0  0  0  0  0  0  0  0
  -29.1865   15.1388   16.4544 H   0  0  0  0  0  0  0  0  0  0  0  0
  -28.0993   13.8258   15.8665 H   0  0  0  0  0  0  0  0  0  0  0  0
  -29.7707   15.1979   18.8420 H   0  0  0  0  0  0  0  0  0  0  0  0
  -27.6211   13.9715   20.2388 H   0  0  0  0  0  0  0  0  0  0  0  0
  1  2  1  0
  1  7  1  0
  1  8  1  0
  1  9  1  0
  2  3  1  0
  2 10  1  0
  2 11  1  0
  3  4  2  0
  3  5  1  0
  5  6  1  0
  5 12  1  0
  6 13  1  0
M  END
> <intraLJ>
0.078     

> <intraEL>
2.379     

> <intraDihe>
5.912     

> <interLJ>
0.000     

> <interEJ>
0.000     

> <gridLJ>
-2.328    

> <gridEL>
0.000     

> <totalE>
6.041     

> <LGFE>
-2.328  

> <LE>
-0.388  

> <SMILES>
CCC(=O)NO

> <atom.dprop.GFE>
-0.32 -0.39 0 -0.79 -0.6 -0.23 0 0 0 0 0 0 0

> <atom.prop.CLASS>
PRPC PRPC NCLA GENA GEND MEOO NCLA NCLA NCLA NCLA NCLA NCLA NCLA

$$$$
