67
     RDKit          3D

 15 15  0  0  1  0  0  0  0  0999 V2000
   18.6072   -3.8458  -33.6759 O   0  0  0  0  0  0  0  0  0  0  0  0
   18.6486   -2.4947  -34.1390 C   0  0  0  0  0  0  0  0  0  0  0  0
   18.9785   -2.3729  -35.6242 C   0  0  0  0  0  0  0  0  0  0  0  0
   18.5220   -1.0793  -35.9736 O   0  0  0  0  0  0  0  0  0  0  0  0
   17.2887   -0.8754  -35.2946 C   0  0  0  0  0  0  0  0  0  0  0  0
   17.2699   -1.8167  -34.0820 C   0  0  0  0  0  0  0  0  0  0  0  0
   16.2478   -2.7897  -34.2202 O   0  0  0  0  0  0  0  0  0  0  0  0
   19.4999   -4.2066  -33.6647 H   0  0  0  0  0  0  0  0  0  0  0  0
   19.3630   -1.9058  -33.5612 H   0  0  0  0  0  0  0  0  0  0  0  0
   18.4282   -3.1280  -36.1885 H   0  0  0  0  0  0  0  0  0  0  0  0
   20.0501   -2.4703  -35.8022 H   0  0  0  0  0  0  0  0  0  0  0  0
   17.2042    0.1635  -34.9735 H   0  0  0  0  0  0  0  0  0  0  0  0
   16.4570   -1.1193  -35.9579 H   0  0  0  0  0  0  0  0  0  0  0  0
   17.1533   -1.2590  -33.1517 H   0  0  0  0  0  0  0  0  0  0  0  0
   16.6592   -3.6183  -33.9302 H   0  0  0  0  0  0  0  0  0  0  0  0
  1  2  1  0
  1  8  1  0
  2  3  1  0
  2  6  1  0
  2  9  1  0
  3  4  1  0
  3 10  1  0
  3 11  1  0
  4  5  1  0
  5  6  1  0
  5 12  1  0
  5 13  1  0
  6  7  1  0
  6 14  1  0
  7 15  1  0
M  END
> <intraLJ>
4.089     

> <intraEL>
1.909     

> <intraDihe>
14.436    

> <interLJ>
0.000     

> <interEJ>
0.000     

> <gridLJ>
-4.210    

> <gridEL>
0.000     

> <totalE>
16.224    

> <LGFE>
-4.210  

> <LE>
-0.601  

> <SMILES>
OC1COCC1O

> <atom.dprop.GFE>
-0.6 -0.41 -0.33 -1.4 -0.3 -0.42 -0.78 0 0 0 0 0 0 0 0

> <atom.prop.CLASS>
MEOO PRPC PRPC GENA PRPC PRPC MEOO NCLA NCLA NCLA NCLA NCLA NCLA NCLA NCLA

$$$$
