70_1
     RDKit          3D

 12 12  0  0  0  0  0  0  0  0999 V2000
   24.0687   10.1514  -16.5681 N   0  0  0  0  0  0  0  0  0  0  0  0
   23.3706   11.2421  -17.1259 C   0  0  0  0  0  0  0  0  0  0  0  0
   22.2301   11.8393  -16.7110 C   0  0  0  0  0  0  0  0  0  0  0  0
   21.9998   12.8555  -17.6273 C   0  0  0  0  0  0  0  0  0  0  0  0
   20.9856   13.7286  -17.6493 O   0  0  0  0  0  0  0  0  0  0  0  0
   22.8872   12.9464  -18.5645 N   0  0  0  0  0  0  0  0  0  0  0  0
   23.7641   11.9238  -18.2414 N   0  0  0  0  0  0  0  0  0  0  0  0
   24.6101    9.5760  -17.2313 H   0  0  0  0  0  0  0  0  0  0  0  0
   23.5007    9.5830  -15.9174 H   0  0  0  0  0  0  0  0  0  0  0  0
   21.6414   11.5909  -15.8693 H   0  0  0  0  0  0  0  0  0  0  0  0
   21.2210   14.2509  -18.4393 H   0  0  0  0  0  0  0  0  0  0  0  0
   24.6228   11.7095  -18.7760 H   0  0  0  0  0  0  0  0  0  0  0  0
  1  2  1  0
  1  8  1  0
  1  9  1  0
  2  3  2  0
  2  7  1  0
  3  4  1  0
  3 10  1  0
  4  5  1  0
  4  6  2  0
  5 11  1  0
  6  7  1  0
  7 12  1  0
M  END
> <intraLJ>
-0.707    

> <intraEL>
-16.624   

> <intraDihe>
2.009     

> <interLJ>
0.000     

> <interEJ>
0.000     

> <gridLJ>
-2.309    

> <gridEL>
0.000     

> <totalE>
-17.631   

> <LGFE>
-2.309  

> <LE>
-0.330  

> <SMILES>
Nc1cc(O)n[nH]1

> <atom.dprop.GFE>
-0.43 -0.14 -0.2 -0.15 -0.54 -0.6 -0.25 0 0 0 0 0

> <atom.prop.CLASS>
GEND GEHC GEHC GEHC MEOO GENA GEND NCLA NCLA NCLA NCLA NCLA

$$$$
