18
     RDKit          3D

 13 13  0  0  0  0  0  0  0  0999 V2000
   -8.4513   -3.9063   11.5762 O   0  0  0  0  0  0  0  0  0  0  0  0
   -7.4242   -4.7090   10.9665 C   0  0  0  0  0  0  0  0  0  0  0  0
   -7.7353   -4.9076    9.3918 C   0  0  0  0  0  0  0  0  0  0  0  0
   -8.1450   -6.5709    9.7075 S   0  0  0  0  0  0  0  0  0  0  0  0
   -7.2358   -7.4495    9.0542 O   0  0  0  0  0  0  0  0  0  0  0  0
   -9.5464   -6.7976    9.6073 O   0  0  0  0  0  0  0  0  0  0  0  0
   -7.6493   -6.2660   11.3482 C   0  0  0  0  0  0  0  0  0  0  0  0
   -8.3013   -2.9590   11.4133 H   0  0  0  0  0  0  0  0  0  0  0  0
   -6.4369   -4.3285   11.1918 H   0  0  0  0  0  0  0  0  0  0  0  0
   -6.8273   -4.6945    8.8438 H   0  0  0  0  0  0  0  0  0  0  0  0
   -8.5135   -4.2086    9.1152 H   0  0  0  0  0  0  0  0  0  0  0  0
   -8.3803   -6.3109   12.1449 H   0  0  0  0  0  0  0  0  0  0  0  0
   -6.7026   -6.6668   11.6838 H   0  0  0  0  0  0  0  0  0  0  0  0
  1  2  1  0
  1  8  1  0
  2  3  1  0
  2  7  1  0
  2  9  1  0
  3  4  1  0
  3 10  1  0
  3 11  1  0
  4  5  2  0
  4  6  2  0
  4  7  1  0
  7 12  1  0
  7 13  1  0
M  END
> <intraLJ>
0.307     

> <intraEL>
-1.458    

> <intraDihe>
23.153    

> <interLJ>
0.000     

> <interEJ>
0.000     

> <gridLJ>
-2.202    

> <gridEL>
0.000     

> <totalE>
19.799    

> <LGFE>
-2.202  

> <LE>
-0.315  

> <SMILES>
O=S1(=O)CC(O)C1

> <atom.dprop.GFE>
-0.31 -0.24 -0.18 0 -0.45 -0.9 -0.13 0 0 0 0 0 0

> <atom.prop.CLASS>
MEOO PRPC PRPC NCLA GENA GENA PRPC NCLA NCLA NCLA NCLA NCLA NCLA

$$$$
