13
     RDKit          3D

 13 12  0  0  0  0  0  0  0  0999 V2000
   -7.4902    9.7072  -11.4674 C   0  0  0  0  0  0  0  0  0  0  0  0
   -7.4365   10.7999  -10.3783 C   0  0  0  0  0  0  0  0  0  0  0  0
   -6.2415   10.5073   -9.4950 C   0  0  0  0  0  0  0  0  0  0  0  0
   -5.1859   11.1143   -9.5831 O   0  0  0  0  0  0  0  0  0  0  0  0
   -6.3622    9.5402   -8.5499 N   0  0  0  0  0  0  0  0  0  0  0  0
   -5.2785    9.2451   -7.6982 O   0  0  0  0  0  0  0  0  0  0  0  0
   -8.3616    9.8927  -12.0963 H   0  0  0  0  0  0  0  0  0  0  0  0
   -7.5811    8.7340  -10.9801 H   0  0  0  0  0  0  0  0  0  0  0  0
   -6.5778    9.7470  -12.0660 H   0  0  0  0  0  0  0  0  0  0  0  0
   -8.3290   10.7357   -9.7709 H   0  0  0  0  0  0  0  0  0  0  0  0
   -7.3120   11.7674  -10.8447 H   0  0  0  0  0  0  0  0  0  0  0  0
   -7.2361    9.0052   -8.4201 H   0  0  0  0  0  0  0  0  0  0  0  0
   -4.5649    9.8690   -7.9787 H   0  0  0  0  0  0  0  0  0  0  0  0
  1  2  1  0
  1  7  1  0
  1  8  1  0
  1  9  1  0
  2  3  1  0
  2 10  1  0
  2 11  1  0
  3  4  2  0
  3  5  1  0
  5  6  1  0
  5 12  1  0
  6 13  1  0
M  END
> <intraLJ>
0.074     

> <intraEL>
2.380     

> <intraDihe>
5.915     

> <interLJ>
0.000     

> <interEJ>
0.000     

> <gridLJ>
-3.742    

> <gridEL>
0.000     

> <totalE>
4.627     

> <LGFE>
-3.742  

> <LE>
-0.624  

> <SMILES>
CCC(=O)NO

> <atom.dprop.GFE>
-0.37 -0.43 0 -0.86 -1.1 -0.94 0 0 0 0 0 0 0

> <atom.prop.CLASS>
PRPC PRPC NCLA GENA GEND MEOO NCLA NCLA NCLA NCLA NCLA NCLA NCLA

$$$$
