17_2
     RDKit          3D

 16 16  0  0  0  0  0  0  0  0999 V2000
  -17.9821  -23.1292   12.3946 N   0  0  0  0  0  0  0  0  0  0  0  0
  -16.6536  -23.0403   12.5915 C   0  0  0  0  0  0  0  0  0  0  0  0
  -16.1144  -23.9867   13.1206 O   0  0  0  0  0  0  0  0  0  0  0  0
  -15.7913  -21.8209   12.1872 C   0  0  0  0  0  0  0  0  0  0  0  0
  -15.6195  -20.8419   13.2498 N   0  0  0  0  0  0  0  0  0  0  0  0
  -15.8785  -21.2846   10.7941 C   0  0  0  0  0  0  0  0  0  0  0  0
  -14.6310  -22.0130   11.2637 C   0  0  0  0  0  0  0  0  0  0  0  0
  -18.4435  -23.9738   12.6996 H   0  0  0  0  0  0  0  0  0  0  0  0
  -18.5159  -22.3933   11.9622 H   0  0  0  0  0  0  0  0  0  0  0  0
  -16.1777  -21.2654   14.0694 H   0  0  0  0  0  0  0  0  0  0  0  0
  -16.0452  -19.9234   12.9268 H   0  0  0  0  0  0  0  0  0  0  0  0
  -14.5846  -20.7768   13.4784 H   0  0  0  0  0  0  0  0  0  0  0  0
  -15.7821  -20.2151   10.6526 H   0  0  0  0  0  0  0  0  0  0  0  0
  -16.5147  -21.8178   10.0980 H   0  0  0  0  0  0  0  0  0  0  0  0
  -14.4749  -23.0080   10.8638 H   0  0  0  0  0  0  0  0  0  0  0  0
  -13.7507  -21.4014   11.4166 H   0  0  0  0  0  0  0  0  0  0  0  0
  1  2  1  0
  1  8  1  0
  1  9  1  0
  2  3  2  0
  2  4  1  0
  4  5  1  0
  4  6  1  0
  4  7  1  0
  5 10  1  0
  5 11  1  0
  5 12  1  0
  6  7  1  0
  6 13  1  0
  6 14  1  0
  7 15  1  0
  7 16  1  0
M  CHG  1   5   1
M  END
> <intraLJ>
-0.439    

> <intraEL>
0.120     

> <intraDihe>
6.307     

> <interLJ>
0.000     

> <interEJ>
0.000     

> <gridLJ>
-3.140    

> <gridEL>
0.000     

> <totalE>
2.849     

> <LGFE>
-3.140  

> <LE>
-0.449  

> <SMILES>
NC(=O)C1([NH3+])CC1

> <atom.dprop.GFE>
-0.44 0 -0.38 -0.12 -2 -0.094 -0.11 0 0 0 0 0 0 0 0 0

> <atom.prop.CLASS>
GEND NCLA GENA PRPC MAMN PRPC PRPC NCLA NCLA NCLA NCLA NCLA NCLA NCLA NCLA NCLA

$$$$
