15_1
     RDKit          3D

 13 13  0  0  0  0  0  0  0  0999 V2000
   -6.6272   10.4792    4.9953 N   0  0  0  0  0  0  0  0  0  0  0  0
   -6.0776   10.7297    6.2098 C   0  0  0  0  0  0  0  0  0  0  0  0
   -6.8352   10.7193    7.3817 C   0  0  0  0  0  0  0  0  0  0  0  0
   -6.2006   10.9945    8.5803 C   0  0  0  0  0  0  0  0  0  0  0  0
   -4.8362   11.2655    8.5463 C   0  0  0  0  0  0  0  0  0  0  0  0
   -4.1615   11.2516    7.3267 C   0  0  0  0  0  0  0  0  0  0  0  0
   -4.7796   10.9881    6.1744 N   0  0  0  0  0  0  0  0  0  0  0  0
   -5.9841   10.7567    4.2433 H   0  0  0  0  0  0  0  0  0  0  0  0
   -7.5948   10.8003    4.8880 H   0  0  0  0  0  0  0  0  0  0  0  0
   -7.8688   10.5000    7.3441 H   0  0  0  0  0  0  0  0  0  0  0  0
   -6.7351   10.9970    9.4963 H   0  0  0  0  0  0  0  0  0  0  0  0
   -4.3101   11.4798    9.4401 H   0  0  0  0  0  0  0  0  0  0  0  0
   -3.1207   11.4558    7.2939 H   0  0  0  0  0  0  0  0  0  0  0  0
  1  2  1  0
  1  8  1  0
  1  9  1  0
  2  3  2  0
  2  7  1  0
  3  4  1  0
  3 10  1  0
  4  5  2  0
  4 11  1  0
  5  6  1  0
  5 12  1  0
  6  7  2  0
  6 13  1  0
M  END
> <intraLJ>
13.521    

> <intraEL>
-12.491   

> <intraDihe>
2.164     

> <interLJ>
0.000     

> <interEJ>
0.000     

> <gridLJ>
-2.407    

> <gridEL>
0.000     

> <totalE>
0.786     

> <LGFE>
-2.407  

> <LE>
-0.344  

> <SMILES>
Nc1ccccn1

> <atom.dprop.GFE>
-0.7 -0.23 -0.026 -0.068 -0.012 -0.23 -1.1 0 0 0 0 0 0

> <atom.prop.CLASS>
GEND GEHC BENC BENC BENC GEHC GENA NCLA NCLA NCLA NCLA NCLA NCLA

$$$$
