13
     RDKit          3D

 13 12  0  0  0  0  0  0  0  0999 V2000
   -2.1033   15.7542    1.3482 C   0  0  0  0  0  0  0  0  0  0  0  0
   -1.2855   15.7107    0.0397 C   0  0  0  0  0  0  0  0  0  0  0  0
   -2.2029   15.2114   -1.0570 C   0  0  0  0  0  0  0  0  0  0  0  0
   -3.0053   15.9309   -1.6307 O   0  0  0  0  0  0  0  0  0  0  0  0
   -2.1097   13.9094   -1.4299 N   0  0  0  0  0  0  0  0  0  0  0  0
   -2.9360   13.4069   -2.4556 O   0  0  0  0  0  0  0  0  0  0  0  0
   -1.4467   16.0893    2.1518 H   0  0  0  0  0  0  0  0  0  0  0  0
   -2.4726   14.7487    1.5617 H   0  0  0  0  0  0  0  0  0  0  0  0
   -2.9390   16.4471    1.2304 H   0  0  0  0  0  0  0  0  0  0  0  0
   -0.4775   15.0009    0.1530 H   0  0  0  0  0  0  0  0  0  0  0  0
   -0.9415   16.7066   -0.2033 H   0  0  0  0  0  0  0  0  0  0  0  0
   -1.4387   13.2588   -0.9902 H   0  0  0  0  0  0  0  0  0  0  0  0
   -3.4783   14.1829   -2.7403 H   0  0  0  0  0  0  0  0  0  0  0  0
  1  2  1  0
  1  7  1  0
  1  8  1  0
  1  9  1  0
  2  3  1  0
  2 10  1  0
  2 11  1  0
  3  4  2  0
  3  5  1  0
  5  6  1  0
  5 12  1  0
  6 13  1  0
M  END
> <intraLJ>
0.075     

> <intraEL>
2.428     

> <intraDihe>
5.928     

> <interLJ>
0.000     

> <interEJ>
0.000     

> <gridLJ>
-3.704    

> <gridEL>
0.000     

> <totalE>
4.726     

> <LGFE>
-3.704  

> <LE>
-0.617  

> <SMILES>
CCC(=O)NO

> <atom.dprop.GFE>
-0.46 -0.58 0 -1.1 -0.94 -0.62 0 0 0 0 0 0 0

> <atom.prop.CLASS>
PRPC PRPC NCLA GENA GEND MEOO NCLA NCLA NCLA NCLA NCLA NCLA NCLA

$$$$
