51_2
     RDKit          3D

 12 12  0  0  0  0  0  0  0  0999 V2000
  -22.3430    9.6744   11.4865 O   0  0  0  0  0  0  0  0  0  0  0  0
  -22.4419    8.9621   12.6136 C   0  0  0  0  0  0  0  0  0  0  0  0
  -21.3086    8.2146   13.2318 C   0  0  0  0  0  0  0  0  0  0  0  0
  -22.1203    7.3900   14.2477 C   0  0  0  0  0  0  0  0  0  0  0  0
  -23.3879    8.1315   14.3243 N   0  0  0  0  0  0  0  0  0  0  0  0
  -23.5518    8.9036   13.1907 N   0  0  0  0  0  0  0  0  0  0  0  0
  -23.2521   10.0186   11.4031 H   0  0  0  0  0  0  0  0  0  0  0  0
  -20.6669    8.9208   13.7386 H   0  0  0  0  0  0  0  0  0  0  0  0
  -20.8248    7.5813   12.5043 H   0  0  0  0  0  0  0  0  0  0  0  0
  -21.6219    7.3465   15.2181 H   0  0  0  0  0  0  0  0  0  0  0  0
  -22.3031    6.3868   13.8580 H   0  0  0  0  0  0  0  0  0  0  0  0
  -24.2291    7.6186   14.6500 H   0  0  0  0  0  0  0  0  0  0  0  0
  1  2  1  0
  1  7  1  0
  2  3  1  0
  2  6  2  0
  3  4  1  0
  3  8  1  0
  3  9  1  0
  4  5  1  0
  4 10  1  0
  4 11  1  0
  5  6  1  0
  5 12  1  0
M  END
> <intraLJ>
-0.691    

> <intraEL>
-4.206    

> <intraDihe>
21.287    

> <interLJ>
0.000     

> <interEJ>
0.000     

> <gridLJ>
-3.243    

> <gridEL>
0.000     

> <totalE>
13.147    

> <LGFE>
-3.243  

> <LE>
-0.540  

> <SMILES>
OC1=NNCC1

> <atom.dprop.GFE>
-0.43 -0.22 -0.21 -0.25 -0.96 -1.2 0 0 0 0 0 0

> <atom.prop.CLASS>
MEOO GEHC PRPC PRPC GEND GENA NCLA NCLA NCLA NCLA NCLA NCLA

$$$$
