26_2
     RDKit          3D

 13 13  0  0  0  0  0  0  0  0999 V2000
    8.0901   -4.2854  -15.7686 O   0  0  0  0  0  0  0  0  0  0  0  0
    8.7032   -4.8717  -14.5938 C   0  0  0  0  0  0  0  0  0  0  0  0
   10.0294   -5.4241  -15.0647 C   0  0  0  0  0  0  0  0  0  0  0  0
   10.4894   -6.6907  -15.1832 C   0  0  0  0  0  0  0  0  0  0  0  0
   11.7896   -6.6060  -15.6699 C   0  0  0  0  0  0  0  0  0  0  0  0
   12.1425   -5.3640  -15.8537 N   0  0  0  0  0  0  0  0  0  0  0  0
   11.0509   -4.6410  -15.4782 N   0  0  0  0  0  0  0  0  0  0  0  0
    7.2240   -3.9066  -15.5409 H   0  0  0  0  0  0  0  0  0  0  0  0
    8.0916   -5.6885  -14.2291 H   0  0  0  0  0  0  0  0  0  0  0  0
    8.8854   -4.1044  -13.8522 H   0  0  0  0  0  0  0  0  0  0  0  0
    9.9646   -7.5793  -14.9495 H   0  0  0  0  0  0  0  0  0  0  0  0
   12.4282   -7.4278  -15.8738 H   0  0  0  0  0  0  0  0  0  0  0  0
   11.0007   -3.6039  -15.5032 H   0  0  0  0  0  0  0  0  0  0  0  0
  1  2  1  0
  1  8  1  0
  2  3  1  0
  2  9  1  0
  2 10  1  0
  3  4  2  0
  3  7  1  0
  4  5  1  0
  4 11  1  0
  5  6  2  0
  5 12  1  0
  6  7  1  0
  7 13  1  0
M  END
> <intraLJ>
0.084     

> <intraEL>
1.022     

> <intraDihe>
1.725     

> <interLJ>
0.000     

> <interEJ>
0.000     

> <gridLJ>
-2.424    

> <gridEL>
0.000     

> <totalE>
0.407     

> <LGFE>
-2.424  

> <LE>
-0.346  

> <SMILES>
OCc1ccn[nH]1

> <atom.dprop.GFE>
-0.87 -0.093 -0.17 -0.058 -0.1 -0.45 -0.68 0 0 0 0 0 0

> <atom.prop.CLASS>
MEOO PRPC GEHC GEHC GEHC GENA GEND NCLA NCLA NCLA NCLA NCLA NCLA

$$$$
