14_2
     RDKit          3D

 19 19  0  0  1  0  0  0  0  0999 V2000
   -9.1451   -5.1035   12.9921 C   0  0  0  0  0  0  0  0  0  0  0  0
   -9.0929   -5.4332   11.5542 N   0  0  0  0  0  0  0  0  0  0  0  0
   -8.5213   -4.3219   10.7831 C   0  0  0  0  0  0  0  0  0  0  0  0
   -8.0072   -5.0024    9.4992 C   0  0  0  0  0  0  0  0  0  0  0  0
   -8.1135   -6.5032    9.7844 C   0  0  0  0  0  0  0  0  0  0  0  0
   -9.3619   -6.9587    9.2839 O   0  0  0  0  0  0  0  0  0  0  0  0
   -8.1819   -6.5570   11.3150 C   0  0  0  0  0  0  0  0  0  0  0  0
   -9.8086   -4.2566   13.1224 H   0  0  0  0  0  0  0  0  0  0  0  0
   -8.1440   -4.8615   13.3310 H   0  0  0  0  0  0  0  0  0  0  0  0
   -9.5291   -5.9679   13.5227 H   0  0  0  0  0  0  0  0  0  0  0  0
   -9.9992   -5.6909   11.1614 H   0  0  0  0  0  0  0  0  0  0  0  0
   -9.2803   -3.5875   10.5347 H   0  0  0  0  0  0  0  0  0  0  0  0
   -7.6748   -3.8954   11.3101 H   0  0  0  0  0  0  0  0  0  0  0  0
   -6.9686   -4.7175    9.3233 H   0  0  0  0  0  0  0  0  0  0  0  0
   -8.6181   -4.7195    8.6418 H   0  0  0  0  0  0  0  0  0  0  0  0
   -7.2832   -7.0691    9.3541 H   0  0  0  0  0  0  0  0  0  0  0  0
   -9.2919   -7.1466    8.3400 H   0  0  0  0  0  0  0  0  0  0  0  0
   -7.2002   -6.3556   11.7271 H   0  0  0  0  0  0  0  0  0  0  0  0
   -8.6162   -7.4995   11.6292 H   0  0  0  0  0  0  0  0  0  0  0  0
  1  2  1  0
  1  8  1  0
  1  9  1  0
  1 10  1  0
  2  3  1  0
  2  7  1  0
  2 11  1  0
  3  4  1  0
  3 12  1  0
  3 13  1  0
  4  5  1  0
  4 14  1  0
  4 15  1  0
  5  6  1  0
  5  7  1  0
  5 16  1  0
  6 17  1  0
  7 18  1  0
  7 19  1  0
M  CHG  1   2   1
M  END
> <intraLJ>
3.793     

> <intraEL>
3.185     

> <intraDihe>
12.263    

> <interLJ>
0.000     

> <interEJ>
0.000     

> <gridLJ>
-2.709    

> <gridEL>
0.000     

> <totalE>
16.531    

> <LGFE>
-2.709  

> <LE>
-0.387  

> <SMILES>
C[NH+]1CCC(O)C1

> <atom.dprop.GFE>
-0.027 -1.1 -0.26 -0.18 -0.27 -0.67 -0.24 0 0 0 0 0 0 0 0 0 0 0 0

> <atom.prop.CLASS>
PRPC MAMN PRPC PRPC PRPC MEOO PRPC NCLA NCLA NCLA NCLA NCLA NCLA NCLA NCLA NCLA NCLA NCLA NCLA

$$$$
