40_1
     RDKit          3D

 11 11  0  0  0  0  0  0  0  0999 V2000
   23.2889   12.2466   -1.6741 O   0  0  0  0  0  0  0  0  0  0  0  0
   22.5136   11.9813   -0.5813 C   0  0  0  0  0  0  0  0  0  0  0  0
   22.4966   10.6889   -0.0770 C   0  0  0  0  0  0  0  0  0  0  0  0
   21.7037   10.4468    1.0283 C   0  0  0  0  0  0  0  0  0  0  0  0
   20.9769   11.4273    1.5939 N   0  0  0  0  0  0  0  0  0  0  0  0
   20.9983   12.6665    1.1049 N   0  0  0  0  0  0  0  0  0  0  0  0
   21.7484   12.9624    0.0348 C   0  0  0  0  0  0  0  0  0  0  0  0
   23.2389   13.1800   -1.9580 H   0  0  0  0  0  0  0  0  0  0  0  0
   23.0711    9.9224   -0.5275 H   0  0  0  0  0  0  0  0  0  0  0  0
   21.6494    9.4791    1.4583 H   0  0  0  0  0  0  0  0  0  0  0  0
   21.7371   13.9583   -0.3230 H   0  0  0  0  0  0  0  0  0  0  0  0
  1  2  1  0
  1  8  1  0
  2  3  2  0
  2  7  1  0
  3  4  1  0
  3  9  1  0
  4  5  2  0
  4 10  1  0
  5  6  1  0
  6  7  2  0
  7 11  1  0
M  END
> <intraLJ>
16.086    

> <intraEL>
2.571     

> <intraDihe>
0.000     

> <interLJ>
0.000     

> <interEJ>
0.000     

> <gridLJ>
-2.217    

> <gridEL>
0.000     

> <totalE>
16.440    

> <LGFE>
-2.217  

> <LE>
-0.317  

> <SMILES>
Oc1ccnnc1

> <atom.dprop.GFE>
-0.54 -0.1 -0.11 -0.15 -0.57 -0.67 -0.088 0 0 0 0

> <atom.prop.CLASS>
MEOO BENC BENC BENC GENA GENA BENC NCLA NCLA NCLA NCLA

$$$$
