38
     RDKit          3D

 11 11  0  0  0  0  0  0  0  0999 V2000
   -6.0947  -10.4928    2.1123 C   0  0  0  0  0  0  0  0  0  0  0  0
   -7.1034   -9.9290    2.8819 C   0  0  0  0  0  0  0  0  0  0  0  0
   -7.0816   -8.5626    3.1482 C   0  0  0  0  0  0  0  0  0  0  0  0
   -6.1138   -7.7736    2.6821 N   0  0  0  0  0  0  0  0  0  0  0  0
   -5.1359   -8.2967    1.9421 C   0  0  0  0  0  0  0  0  0  0  0  0
   -5.0960   -9.6548    1.6373 C   0  0  0  0  0  0  0  0  0  0  0  0
   -6.0880  -11.5302    1.8947 H   0  0  0  0  0  0  0  0  0  0  0  0
   -7.8854  -10.5317    3.2644 H   0  0  0  0  0  0  0  0  0  0  0  0
   -7.8464   -8.1195    3.7342 H   0  0  0  0  0  0  0  0  0  0  0  0
   -4.3789   -7.6453    1.5853 H   0  0  0  0  0  0  0  0  0  0  0  0
   -4.3067  -10.0421    1.0473 H   0  0  0  0  0  0  0  0  0  0  0  0
  1  2  2  0
  1  6  1  0
  1  7  1  0
  2  3  1  0
  2  8  1  0
  3  4  2  0
  3  9  1  0
  4  5  1  0
  5  6  2  0
  5 10  1  0
  6 11  1  0
M  END
> <intraLJ>
12.613    

> <intraEL>
0.241     

> <intraDihe>
0.000     

> <interLJ>
0.000     

> <interEJ>
0.000     

> <gridLJ>
-2.323    

> <gridEL>
0.000     

> <totalE>
10.532    

> <LGFE>
-2.323  

> <LE>
-0.387  

> <SMILES>
c1ccncc1

> <atom.dprop.GFE>
-0.19 -0.18 -0.28 -1.3 -0.26 -0.093 0 0 0 0 0

> <atom.prop.CLASS>
BENC BENC GEHC GENA GEHC BENC NCLA NCLA NCLA NCLA NCLA

$$$$
