5
     RDKit          3D

 13 13  0  0  0  0  0  0  0  0999 V2000
  -36.8581    9.7096   15.0886 C   0  0  0  0  0  0  0  0  0  0  0  0
  -37.2889    8.3641   14.5006 C   0  0  0  0  0  0  0  0  0  0  0  0
  -36.0027    7.5375   14.4741 C   0  0  0  0  0  0  0  0  0  0  0  0
  -35.0856    8.2527   15.2760 O   0  0  0  0  0  0  0  0  0  0  0  0
  -35.3359    9.6264   15.0727 C   0  0  0  0  0  0  0  0  0  0  0  0
  -37.2035    9.7938   16.1205 H   0  0  0  0  0  0  0  0  0  0  0  0
  -37.2162   10.5478   14.4920 H   0  0  0  0  0  0  0  0  0  0  0  0
  -37.6751    8.4860   13.4879 H   0  0  0  0  0  0  0  0  0  0  0  0
  -38.0337    7.8899   15.1391 H   0  0  0  0  0  0  0  0  0  0  0  0
  -35.6236    7.4767   13.4519 H   0  0  0  0  0  0  0  0  0  0  0  0
  -36.1675    6.5344   14.8707 H   0  0  0  0  0  0  0  0  0  0  0  0
  -34.8941   10.2336   15.8639 H   0  0  0  0  0  0  0  0  0  0  0  0
  -34.9520    9.9349   14.0985 H   0  0  0  0  0  0  0  0  0  0  0  0
  1  2  1  0
  1  5  1  0
  1  6  1  0
  1  7  1  0
  2  3  1  0
  2  8  1  0
  2  9  1  0
  3  4  1  0
  3 10  1  0
  3 11  1  0
  4  5  1  0
  5 12  1  0
  5 13  1  0
M  END
> <intraLJ>
-0.357    

> <intraEL>
0.089     

> <intraDihe>
7.745     

> <interLJ>
0.000     

> <interEJ>
0.000     

> <gridLJ>
-2.091    

> <gridEL>
0.000     

> <totalE>
5.386     

> <LGFE>
-2.091  

> <LE>
-0.418  

> <SMILES>
C1CCOC1

> <atom.dprop.GFE>
-0.33 -0.24 -0.35 -0.79 -0.39 0 0 0 0 0 0 0 0

> <atom.prop.CLASS>
PRPC PRPC PRPC GENA PRPC NCLA NCLA NCLA NCLA NCLA NCLA NCLA NCLA

$$$$
