33
     RDKit          3D

 12 12  0  0  0  0  0  0  0  0999 V2000
  -23.4861    3.2493   21.4372 N   0  0  0  0  0  0  0  0  0  0  0  0
  -22.4631    2.5620   22.0296 C   0  0  0  0  0  0  0  0  0  0  0  0
  -21.8514    1.4880   21.3986 C   0  0  0  0  0  0  0  0  0  0  0  0
  -20.8300    0.8441   22.0792 C   0  0  0  0  0  0  0  0  0  0  0  0
  -20.4830    1.3074   23.3411 C   0  0  0  0  0  0  0  0  0  0  0  0
  -21.1138    2.3536   23.8974 N   0  0  0  0  0  0  0  0  0  0  0  0
  -22.0971    2.9799   23.2505 N   0  0  0  0  0  0  0  0  0  0  0  0
  -23.9973    3.8431   22.1036 H   0  0  0  0  0  0  0  0  0  0  0  0
  -24.0669    2.7068   20.7874 H   0  0  0  0  0  0  0  0  0  0  0  0
  -22.1547    1.1832   20.4322 H   0  0  0  0  0  0  0  0  0  0  0  0
  -20.3228    0.0195   21.6499 H   0  0  0  0  0  0  0  0  0  0  0  0
  -19.7081    0.8452   23.8966 H   0  0  0  0  0  0  0  0  0  0  0  0
  1  2  1  0
  1  8  1  0
  1  9  1  0
  2  3  2  0
  2  7  1  0
  3  4  1  0
  3 10  1  0
  4  5  2  0
  4 11  1  0
  5  6  1  0
  5 12  1  0
  6  7  2  0
M  END
> <intraLJ>
16.642    

> <intraEL>
-7.622    

> <intraDihe>
1.828     

> <interLJ>
0.000     

> <interEJ>
0.000     

> <gridLJ>
-5.573    

> <gridEL>
0.000     

> <totalE>
5.275     

> <LGFE>
-5.573  

> <LE>
-0.796  

> <SMILES>
Nc1cccnn1

> <atom.dprop.GFE>
-1.4 -0.21 -0.12 -0.15 -0.12 -1.7 -1.9 0 0 0 0 0

> <atom.prop.CLASS>
GEND GEHC BENC BENC BENC GENA GENA NCLA NCLA NCLA NCLA NCLA

$$$$
