32
     RDKit          3D

 17 16  0  0  0  0  0  0  0  0999 V2000
  -24.0882  -18.5530    8.1070 C   0  0  0  0  0  0  0  0  0  0  0  0
  -25.3465  -17.7226    8.3480 C   0  0  0  0  0  0  0  0  0  0  0  0
  -25.7204  -16.9267    7.0988 C   0  0  0  0  0  0  0  0  0  0  0  0
  -25.0046  -16.7590    9.3759 N   0  0  0  0  0  0  0  0  0  0  0  0
  -25.4995  -16.7458   10.6277 C   0  0  0  0  0  0  0  0  0  0  0  0
  -26.0853  -17.7053   11.0848 O   0  0  0  0  0  0  0  0  0  0  0  0
  -25.3383  -15.6337   11.3467 N   0  0  0  0  0  0  0  0  0  0  0  0
  -24.2769  -19.2854    7.3227 H   0  0  0  0  0  0  0  0  0  0  0  0
  -23.8177  -19.0784    9.0237 H   0  0  0  0  0  0  0  0  0  0  0  0
  -23.2602  -17.9115    7.8046 H   0  0  0  0  0  0  0  0  0  0  0  0
  -26.1675  -18.3868    8.6223 H   0  0  0  0  0  0  0  0  0  0  0  0
  -24.9006  -16.2706    6.8060 H   0  0  0  0  0  0  0  0  0  0  0  0
  -26.6042  -16.3219    7.3027 H   0  0  0  0  0  0  0  0  0  0  0  0
  -25.9426  -17.6105    6.2803 H   0  0  0  0  0  0  0  0  0  0  0  0
  -24.7368  -15.8236    9.0509 H   0  0  0  0  0  0  0  0  0  0  0  0
  -25.8994  -15.5892   12.2043 H   0  0  0  0  0  0  0  0  0  0  0  0
  -25.1330  -14.7742   10.8356 H   0  0  0  0  0  0  0  0  0  0  0  0
  1  2  1  0
  1  8  1  0
  1  9  1  0
  1 10  1  0
  2  3  1  0
  2  4  1  0
  2 11  1  0
  3 12  1  0
  3 13  1  0
  3 14  1  0
  4  5  1  0
  4 15  1  0
  5  6  2  0
  5  7  1  0
  7 16  1  0
  7 17  1  0
M  END
> <intraLJ>
-0.694    

> <intraEL>
-9.452    

> <intraDihe>
5.485     

> <interLJ>
0.000     

> <interEJ>
0.000     

> <gridLJ>
-3.996    

> <gridEL>
0.000     

> <totalE>
-8.657    

> <LGFE>
-3.996  

> <LE>
-0.571  

> <SMILES>
CC(C)NC(N)=O

> <atom.dprop.GFE>
-0.25 -0.39 -0.44 -0.88 0 -0.88 -1.1 0 0 0 0 0 0 0 0 0 0

> <atom.prop.CLASS>
PRPC PRPC PRPC GEND NCLA GENA GEND NCLA NCLA NCLA NCLA NCLA NCLA NCLA NCLA NCLA NCLA

$$$$
