41
     RDKit          3D

  8  8  0  0  0  0  0  0  0  0999 V2000
   -8.5299   14.7409    2.4936 C   0  0  0  0  0  0  0  0  0  0  0  0
   -8.4389   13.5177    3.0456 C   0  0  0  0  0  0  0  0  0  0  0  0
   -9.7005   13.1542    3.2718 N   0  0  0  0  0  0  0  0  0  0  0  0
  -10.5437   14.1161    2.8741 N   0  0  0  0  0  0  0  0  0  0  0  0
   -9.8236   15.1027    2.3909 N   0  0  0  0  0  0  0  0  0  0  0  0
   -7.7198   15.3483    2.1782 H   0  0  0  0  0  0  0  0  0  0  0  0
   -7.6065   12.9087    3.2823 H   0  0  0  0  0  0  0  0  0  0  0  0
  -10.0203   12.2627    3.6932 H   0  0  0  0  0  0  0  0  0  0  0  0
  1  2  2  0
  1  5  1  0
  1  6  1  0
  2  3  1  0
  2  7  1  0
  3  4  1  0
  3  8  1  0
  4  5  2  0
M  END
> <intraLJ>
-0.290    

> <intraEL>
-0.628    

> <intraDihe>
0.000     

> <interLJ>
0.000     

> <interEJ>
0.000     

> <gridLJ>
-2.126    

> <gridEL>
0.000     

> <totalE>
-3.044    

> <LGFE>
-2.126  

> <LE>
-0.425  

> <SMILES>
c1c[nH]nn1

> <atom.dprop.GFE>
-0.17 -0.15 -0.62 -0.56 -0.61 0 0 0

> <atom.prop.CLASS>
GEHC GEHC GEND GENA GENA NCLA NCLA NCLA

$$$$
