23_3
     RDKit          3D

 11 11  0  0  0  0  0  0  0  0999 V2000
   10.9341   -4.1907    7.2358 O   0  0  0  0  0  0  0  0  0  0  0  0
   11.8351   -4.2756    6.4153 C   0  0  0  0  0  0  0  0  0  0  0  0
   12.8537   -3.3750    6.5370 N   0  0  0  0  0  0  0  0  0  0  0  0
   13.9296   -3.3557    5.6843 C   0  0  0  0  0  0  0  0  0  0  0  0
   13.9490   -4.2850    4.6907 C   0  0  0  0  0  0  0  0  0  0  0  0
   12.8784   -5.2170    4.5787 C   0  0  0  0  0  0  0  0  0  0  0  0
   11.8835   -5.2134    5.3896 N   0  0  0  0  0  0  0  0  0  0  0  0
   12.7538   -2.7110    7.3170 H   0  0  0  0  0  0  0  0  0  0  0  0
   14.6727   -2.6165    5.8598 H   0  0  0  0  0  0  0  0  0  0  0  0
   14.7461   -4.3297    3.9970 H   0  0  0  0  0  0  0  0  0  0  0  0
   12.8980   -5.9402    3.8026 H   0  0  0  0  0  0  0  0  0  0  0  0
  1  2  2  0
  2  3  1  0
  2  7  1  0
  3  4  1  0
  3  8  1  0
  4  5  2  0
  4  9  1  0
  5  6  1  0
  5 10  1  0
  6  7  2  0
  6 11  1  0
M  END
> <intraLJ>
11.692    

> <intraEL>
-4.846    

> <intraDihe>
0.000     

> <interLJ>
0.000     

> <interEJ>
0.000     

> <gridLJ>
-2.274    

> <gridEL>
0.000     

> <totalE>
4.572     

> <LGFE>
-2.274  

> <LE>
-0.325  

> <SMILES>
O=c1nccc[nH]1

> <atom.dprop.GFE>
-0.65 -0.21 -0.46 -0.08 -0.099 -0.11 -0.67 0 0 0 0

> <atom.prop.CLASS>
GENA GEHC GEND BENC BENC BENC GENA NCLA NCLA NCLA NCLA

$$$$
