81_2
     RDKit          3D

 19 19  0  0  1  0  0  0  0  0999 V2000
  -36.8699   -0.5048   10.6362 N   0  0  0  0  0  0  0  0  0  0  0  0
  -37.8518    0.1228    9.7168 C   0  0  0  0  0  0  0  0  0  0  0  0
  -39.2762   -0.2941   10.1160 C   0  0  0  0  0  0  0  0  0  0  0  0
  -39.5635   -1.7861    9.9811 C   0  0  0  0  0  0  0  0  0  0  0  0
  -41.0749   -1.8084    9.7474 C   0  0  0  0  0  0  0  0  0  0  0  0
  -41.4291   -0.3713    9.3573 C   0  0  0  0  0  0  0  0  0  0  0  0
  -40.1871    0.3010    9.2094 O   0  0  0  0  0  0  0  0  0  0  0  0
  -35.9345   -0.1546   10.4975 H   0  0  0  0  0  0  0  0  0  0  0  0
  -36.8992   -1.5104   10.5534 H   0  0  0  0  0  0  0  0  0  0  0  0
  -37.2061   -0.2878   11.5734 H   0  0  0  0  0  0  0  0  0  0  0  0
  -37.7896    1.2096    9.8136 H   0  0  0  0  0  0  0  0  0  0  0  0
  -37.6628   -0.1464    8.6746 H   0  0  0  0  0  0  0  0  0  0  0  0
  -39.5006    0.0390   11.1318 H   0  0  0  0  0  0  0  0  0  0  0  0
  -39.0528   -2.1978    9.1077 H   0  0  0  0  0  0  0  0  0  0  0  0
  -39.2896   -2.3358   10.8835 H   0  0  0  0  0  0  0  0  0  0  0  0
  -41.6047   -2.0834   10.6617 H   0  0  0  0  0  0  0  0  0  0  0  0
  -41.3330   -2.5021    8.9447 H   0  0  0  0  0  0  0  0  0  0  0  0
  -42.0115    0.0927   10.1559 H   0  0  0  0  0  0  0  0  0  0  0  0
  -42.0002   -0.3462    8.4266 H   0  0  0  0  0  0  0  0  0  0  0  0
  1  2  1  0
  1  8  1  0
  1  9  1  0
  1 10  1  0
  2  3  1  0
  2 11  1  0
  2 12  1  0
  3  4  1  0
  3  7  1  0
  3 13  1  0
  4  5  1  0
  4 14  1  0
  4 15  1  0
  5  6  1  0
  5 16  1  0
  5 17  1  0
  6  7  1  0
  6 18  1  0
  6 19  1  0
M  CHG  1   1   1
M  END
> <intraLJ>
-0.745    

> <intraEL>
2.670     

> <intraDihe>
7.603     

> <interLJ>
0.000     

> <interEJ>
0.000     

> <gridLJ>
-2.285    

> <gridEL>
0.000     

> <totalE>
7.243     

> <LGFE>
-2.285  

> <LE>
-0.326  

> <SMILES>
[NH3+]CC1CCCO1

> <atom.dprop.GFE>
-1.4 -0.069 -0.14 -0.12 -0.11 -0.12 -0.31 0 0 0 0 0 0 0 0 0 0 0 0

> <atom.prop.CLASS>
MAMN PRPC PRPC PRPC PRPC PRPC GENA NCLA NCLA NCLA NCLA NCLA NCLA NCLA NCLA NCLA NCLA NCLA NCLA

$$$$
