9_2
     RDKit          3D

 13 13  0  0  0  0  0  0  0  0999 V2000
  -16.1061   -8.3576   -5.6584 O   0  0  0  0  0  0  0  0  0  0  0  0
  -15.5863   -9.5808   -6.3008 C   0  0  0  0  0  0  0  0  0  0  0  0
  -16.0308  -10.8627   -5.5387 C   0  0  0  0  0  0  0  0  0  0  0  0
  -14.9063  -10.5796   -4.6069 N   0  0  0  0  0  0  0  0  0  0  0  0
  -14.1831   -9.9687   -5.7545 C   0  0  0  0  0  0  0  0  0  0  0  0
  -16.3988   -7.7044   -6.3237 H   0  0  0  0  0  0  0  0  0  0  0  0
  -15.7138   -9.5824   -7.3746 H   0  0  0  0  0  0  0  0  0  0  0  0
  -15.8760  -11.7668   -6.1134 H   0  0  0  0  0  0  0  0  0  0  0  0
  -17.0094  -10.7879   -5.0848 H   0  0  0  0  0  0  0  0  0  0  0  0
  -14.4411  -11.4406   -4.1900 H   0  0  0  0  0  0  0  0  0  0  0  0
  -15.1863   -9.8316   -3.8975 H   0  0  0  0  0  0  0  0  0  0  0  0
  -13.5651   -9.1213   -5.4871 H   0  0  0  0  0  0  0  0  0  0  0  0
  -13.6823  -10.7049   -6.3685 H   0  0  0  0  0  0  0  0  0  0  0  0
  1  2  1  0
  1  6  1  0
  2  3  1  0
  2  5  1  0
  2  7  1  0
  3  4  1  0
  3  8  1  0
  3  9  1  0
  4  5  1  0
  4 10  1  0
  4 11  1  0
  5 12  1  0
  5 13  1  0
M  CHG  1   4   1
M  END
> <intraLJ>
3.656     

> <intraEL>
5.220     

> <intraDihe>
6.360     

> <interLJ>
0.000     

> <interEJ>
0.000     

> <gridLJ>
-2.026    

> <gridEL>
0.000     

> <totalE>
13.210    

> <LGFE>
-2.026  

> <LE>
-0.405  

> <SMILES>
OC1C[NH2+]C1

> <atom.dprop.GFE>
-0.57 -0.13 0.13 -1.7 0.24 0 0 0 0 0 0 0 0

> <atom.prop.CLASS>
MEOO PRPC PRPC MAMN PRPC NCLA NCLA NCLA NCLA NCLA NCLA NCLA NCLA

$$$$
