81_2
     RDKit          3D

 19 19  0  0  1  0  0  0  0  0999 V2000
   -1.0436   -4.8522    8.4926 N   0  0  0  0  0  0  0  0  0  0  0  0
   -2.1206   -5.8735    8.5189 C   0  0  0  0  0  0  0  0  0  0  0  0
   -1.6196   -7.1726    7.8680 C   0  0  0  0  0  0  0  0  0  0  0  0
   -1.2721   -7.0494    6.3879 C   0  0  0  0  0  0  0  0  0  0  0  0
   -1.4976   -8.4741    5.8792 C   0  0  0  0  0  0  0  0  0  0  0  0
   -2.3296   -9.1498    6.9720 C   0  0  0  0  0  0  0  0  0  0  0  0
   -2.6756   -8.1161    7.8820 O   0  0  0  0  0  0  0  0  0  0  0  0
   -1.2796   -4.0303    9.0270 H   0  0  0  0  0  0  0  0  0  0  0  0
   -0.8051   -4.6131    7.5413 H   0  0  0  0  0  0  0  0  0  0  0  0
   -0.2251   -5.3183    8.8812 H   0  0  0  0  0  0  0  0  0  0  0  0
   -2.3712   -6.1033    9.5575 H   0  0  0  0  0  0  0  0  0  0  0  0
   -3.0233   -5.5258    8.0104 H   0  0  0  0  0  0  0  0  0  0  0  0
   -0.7654   -7.5710    8.4201 H   0  0  0  0  0  0  0  0  0  0  0  0
   -1.9641   -6.3688    5.8867 H   0  0  0  0  0  0  0  0  0  0  0  0
   -0.2393   -6.7295    6.2382 H   0  0  0  0  0  0  0  0  0  0  0  0
   -0.5473   -8.9990    5.7618 H   0  0  0  0  0  0  0  0  0  0  0  0
   -2.0381   -8.4662    4.9305 H   0  0  0  0  0  0  0  0  0  0  0  0
   -1.7258   -9.9056    7.4782 H   0  0  0  0  0  0  0  0  0  0  0  0
   -3.2237   -9.6167    6.5529 H   0  0  0  0  0  0  0  0  0  0  0  0
  1  2  1  0
  1  8  1  0
  1  9  1  0
  1 10  1  0
  2  3  1  0
  2 11  1  0
  2 12  1  0
  3  4  1  0
  3  7  1  0
  3 13  1  0
  4  5  1  0
  4 14  1  0
  4 15  1  0
  5  6  1  0
  5 16  1  0
  5 17  1  0
  6  7  1  0
  6 18  1  0
  6 19  1  0
M  CHG  1   1   1
M  END
> <intraLJ>
-0.745    

> <intraEL>
2.670     

> <intraDihe>
7.602     

> <interLJ>
0.000     

> <interEJ>
0.000     

> <gridLJ>
-2.705    

> <gridEL>
0.000     

> <totalE>
6.822     

> <LGFE>
-2.705  

> <LE>
-0.386  

> <SMILES>
[NH3+]CC1CCCO1

> <atom.dprop.GFE>
-2.2 0.015 -0.041 -0.038 -0.058 -0.068 -0.27 0 0 0 0 0 0 0 0 0 0 0 0

> <atom.prop.CLASS>
MAMN PRPC PRPC PRPC PRPC PRPC GENA NCLA NCLA NCLA NCLA NCLA NCLA NCLA NCLA NCLA NCLA NCLA NCLA

$$$$
