37_1
     RDKit          3D

 12 11  0  0  1  0  0  0  0  0999 V2000
   -4.3783   15.9712   -1.6207 C   0  0  0  0  0  0  0  0  0  0  0  0
   -3.5299   15.0631   -0.7159 C   0  0  0  0  0  0  0  0  0  0  0  0
   -2.9927   15.9295    0.3277 O   0  0  0  0  0  0  0  0  0  0  0  0
   -2.3823   14.4621   -1.5397 C   0  0  0  0  0  0  0  0  0  0  0  0
   -1.1997   14.7656   -1.4311 O   0  0  0  0  0  0  0  0  0  0  0  0
   -2.6402   13.5805   -2.5258 O   0  0  0  0  0  0  0  0  0  0  0  0
   -4.8042   15.3621   -2.4188 H   0  0  0  0  0  0  0  0  0  0  0  0
   -3.7420   16.7553   -2.0327 H   0  0  0  0  0  0  0  0  0  0  0  0
   -5.1711   16.4072   -1.0122 H   0  0  0  0  0  0  0  0  0  0  0  0
   -4.1389   14.2727   -0.2959 H   0  0  0  0  0  0  0  0  0  0  0  0
   -2.2343   16.4302   -0.0281 H   0  0  0  0  0  0  0  0  0  0  0  0
   -1.7736   13.3811   -2.8834 H   0  0  0  0  0  0  0  0  0  0  0  0
  1  2  1  0
  1  7  1  0
  1  8  1  0
  1  9  1  0
  2  3  1  0
  2  4  1  0
  2 10  1  0
  3 11  1  0
  4  5  2  0
  4  6  1  0
  6 12  1  0
M  END
> <intraLJ>
-0.230    

> <intraEL>
3.044     

> <intraDihe>
2.573     

> <interLJ>
0.000     

> <interEJ>
0.000     

> <gridLJ>
-3.408    

> <gridEL>
0.000     

> <totalE>
1.979     

> <LGFE>
-3.408  

> <LE>
-0.568  

> <SMILES>
CC(O)C(=O)O

> <atom.dprop.GFE>
-0.55 -0.66 -0.6 0 -0.99 -0.62 0 0 0 0 0 0

> <atom.prop.CLASS>
PRPC PRPC MEOO NCLA GENA MEOO NCLA NCLA NCLA NCLA NCLA NCLA

$$$$
