14_2
     RDKit          3D

 19 19  0  0  1  0  0  0  0  0999 V2000
    2.7718    3.4275  -40.1927 C   0  0  0  0  0  0  0  0  0  0  0  0
    2.8939    2.5154  -39.0385 N   0  0  0  0  0  0  0  0  0  0  0  0
    2.2968    3.1103  -37.8361 C   0  0  0  0  0  0  0  0  0  0  0  0
    1.9799    1.8894  -36.9504 C   0  0  0  0  0  0  0  0  0  0  0  0
    2.2017    0.6789  -37.8618 C   0  0  0  0  0  0  0  0  0  0  0  0
    3.5315    0.2200  -37.6679 O   0  0  0  0  0  0  0  0  0  0  0  0
    2.1235    1.2887  -39.2662 C   0  0  0  0  0  0  0  0  0  0  0  0
    3.3345    4.3278  -39.9749 H   0  0  0  0  0  0  0  0  0  0  0  0
    1.7235    3.6585  -40.3453 H   0  0  0  0  0  0  0  0  0  0  0  0
    3.1830    2.9275  -41.0628 H   0  0  0  0  0  0  0  0  0  0  0  0
    3.8551    2.2352  -38.8396 H   0  0  0  0  0  0  0  0  0  0  0  0
    3.0023    3.7615  -37.3308 H   0  0  0  0  0  0  0  0  0  0  0  0
    1.3652    3.6066  -38.0855 H   0  0  0  0  0  0  0  0  0  0  0  0
    0.9412    1.9356  -36.6192 H   0  0  0  0  0  0  0  0  0  0  0  0
    2.6424    1.8583  -36.0852 H   0  0  0  0  0  0  0  0  0  0  0  0
    1.4764   -0.1184  -37.6799 H   0  0  0  0  0  0  0  0  0  0  0  0
    3.5734   -0.3578  -36.8962 H   0  0  0  0  0  0  0  0  0  0  0  0
    1.0911    1.5169  -39.5032 H   0  0  0  0  0  0  0  0  0  0  0  0
    2.6134    0.6334  -39.9778 H   0  0  0  0  0  0  0  0  0  0  0  0
  1  2  1  0
  1  8  1  0
  1  9  1  0
  1 10  1  0
  2  3  1  0
  2  7  1  0
  2 11  1  0
  3  4  1  0
  3 12  1  0
  3 13  1  0
  4  5  1  0
  4 14  1  0
  4 15  1  0
  5  6  1  0
  5  7  1  0
  5 16  1  0
  6 17  1  0
  7 18  1  0
  7 19  1  0
M  CHG  1   2   1
M  END
> <intraLJ>
3.793     

> <intraEL>
3.185     

> <intraDihe>
12.263    

> <interLJ>
0.000     

> <interEJ>
0.000     

> <gridLJ>
-2.201    

> <gridEL>
0.000     

> <totalE>
17.040    

> <LGFE>
-2.201  

> <LE>
-0.314  

> <SMILES>
C[NH+]1CCC(O)C1

> <atom.dprop.GFE>
-0.38 0.75 -0.44 -0.32 -0.43 -0.96 -0.42 0 0 0 0 0 0 0 0 0 0 0 0

> <atom.prop.CLASS>
PRPC MAMN PRPC PRPC PRPC MEOO PRPC NCLA NCLA NCLA NCLA NCLA NCLA NCLA NCLA NCLA NCLA NCLA NCLA

$$$$
