49_1
     RDKit          3D

 18 18  0  0  1  0  0  0  0  0999 V2000
   -3.1476   15.9542    0.2743 O   0  0  0  0  0  0  0  0  0  0  0  0
   -2.8528   14.5748    0.0879 C   0  0  0  0  0  0  0  0  0  0  0  0
   -2.5430   14.2780   -1.3872 C   0  0  0  0  0  0  0  0  0  0  0  0
   -1.3254   15.0231   -1.9310 C   0  0  0  0  0  0  0  0  0  0  0  0
   -1.5983   15.1183   -3.4436 C   0  0  0  0  0  0  0  0  0  0  0  0
   -3.0182   14.5781   -3.6134 C   0  0  0  0  0  0  0  0  0  0  0  0
   -3.6350   14.6809   -2.2835 N   0  0  0  0  0  0  0  0  0  0  0  0
   -3.0859   16.1680    1.2090 H   0  0  0  0  0  0  0  0  0  0  0  0
   -1.9868   14.2917    0.6873 H   0  0  0  0  0  0  0  0  0  0  0  0
   -3.7120   13.9787    0.3972 H   0  0  0  0  0  0  0  0  0  0  0  0
   -2.3635   13.2058   -1.4937 H   0  0  0  0  0  0  0  0  0  0  0  0
   -1.2880   16.0278   -1.5083 H   0  0  0  0  0  0  0  0  0  0  0  0
   -0.4043   14.4797   -1.7176 H   0  0  0  0  0  0  0  0  0  0  0  0
   -0.8919   14.5162   -4.0146 H   0  0  0  0  0  0  0  0  0  0  0  0
   -1.5565   16.1606   -3.7615 H   0  0  0  0  0  0  0  0  0  0  0  0
   -2.9611   13.5283   -3.9104 H   0  0  0  0  0  0  0  0  0  0  0  0
   -3.5787   15.1409   -4.3626 H   0  0  0  0  0  0  0  0  0  0  0  0
   -4.4472   14.0869   -2.1613 H   0  0  0  0  0  0  0  0  0  0  0  0
  1  2  1  0
  1  8  1  0
  2  3  1  0
  2  9  1  0
  2 10  1  0
  3  4  1  0
  3  7  1  0
  3 11  1  0
  4  5  1  0
  4 12  1  0
  4 13  1  0
  5  6  1  0
  5 14  1  0
  5 15  1  0
  6  7  1  0
  6 16  1  0
  6 17  1  0
  7 18  1  0
M  END
> <intraLJ>
0.883     

> <intraEL>
2.611     

> <intraDihe>
11.641    

> <interLJ>
0.000     

> <interEJ>
0.000     

> <gridLJ>
-4.395    

> <gridEL>
0.000     

> <totalE>
10.741    

> <LGFE>
-4.395  

> <LE>
-0.628  

> <SMILES>
OCC1CCCN1

> <atom.dprop.GFE>
-0.6 -0.73 -0.74 -0.67 -0.5 -0.52 -0.63 0 0 0 0 0 0 0 0 0 0 0

> <atom.prop.CLASS>
MEOO PRPC PRPC PRPC PRPC PRPC GEND NCLA NCLA NCLA NCLA NCLA NCLA NCLA NCLA NCLA NCLA NCLA

$$$$
