35_2
     RDKit          3D

 10 10  0  0  0  0  0  0  0  0999 V2000
  -28.1226   15.5887   22.6119 N   0  0  0  0  0  0  0  0  0  0  0  0
  -28.1179   15.3553   23.9746 C   0  0  0  0  0  0  0  0  0  0  0  0
  -28.0957   16.3330   24.8706 N   0  0  0  0  0  0  0  0  0  0  0  0
  -28.0986   15.7460   26.0700 C   0  0  0  0  0  0  0  0  0  0  0  0
  -28.1175   14.4638   25.9212 N   0  0  0  0  0  0  0  0  0  0  0  0
  -28.1264   14.2023   24.5600 N   0  0  0  0  0  0  0  0  0  0  0  0
  -28.3628   14.7328   22.0886 H   0  0  0  0  0  0  0  0  0  0  0  0
  -28.6400   16.4220   22.3047 H   0  0  0  0  0  0  0  0  0  0  0  0
  -28.0639   17.3383   24.6613 H   0  0  0  0  0  0  0  0  0  0  0  0
  -28.0826   16.3030   26.9716 H   0  0  0  0  0  0  0  0  0  0  0  0
  1  2  1  0
  1  7  1  0
  1  8  1  0
  2  3  1  0
  2  6  2  0
  3  4  1  0
  3  9  1  0
  4  5  2  0
  4 10  1  0
  5  6  1  0
M  END
> <intraLJ>
-0.237    

> <intraEL>
-7.007    

> <intraDihe>
2.733     

> <interLJ>
0.000     

> <interEJ>
0.000     

> <gridLJ>
-2.546    

> <gridEL>
0.000     

> <totalE>
-7.058    

> <LGFE>
-2.546  

> <LE>
-0.424  

> <SMILES>
Nc1nnc[nH]1

> <atom.dprop.GFE>
-0.54 -0.18 -0.29 -0.097 -1 -0.43 0 0 0 0

> <atom.prop.CLASS>
GEND GEHC GEND GEHC GENA GENA NCLA NCLA NCLA NCLA

$$$$
