69_1
     RDKit          3D

 14 14  0  0  0  0  0  0  0  0999 V2000
  -34.1189    9.8796   14.5271 C   0  0  0  0  0  0  0  0  0  0  0  0
  -35.2970    9.1213   14.9115 N   0  0  0  0  0  0  0  0  0  0  0  0
  -36.4960    9.6350   15.2944 C   0  0  0  0  0  0  0  0  0  0  0  0
  -37.3554    8.6954   15.5742 N   0  0  0  0  0  0  0  0  0  0  0  0
  -36.6746    7.5551   15.3536 C   0  0  0  0  0  0  0  0  0  0  0  0
  -37.2792    6.3306   15.5636 N   0  0  0  0  0  0  0  0  0  0  0  0
  -35.4075    7.7773   14.9534 C   0  0  0  0  0  0  0  0  0  0  0  0
  -34.3706   10.9292   14.5783 H   0  0  0  0  0  0  0  0  0  0  0  0
  -33.8663    9.5794   13.5190 H   0  0  0  0  0  0  0  0  0  0  0  0
  -33.3361    9.6228   15.2268 H   0  0  0  0  0  0  0  0  0  0  0  0
  -36.6489   10.6834   15.3410 H   0  0  0  0  0  0  0  0  0  0  0  0
  -36.6143    5.6912   16.0100 H   0  0  0  0  0  0  0  0  0  0  0  0
  -38.1016    6.5048   16.1548 H   0  0  0  0  0  0  0  0  0  0  0  0
  -34.6289    7.1066   14.7042 H   0  0  0  0  0  0  0  0  0  0  0  0
  1  2  1  0
  1  8  1  0
  1  9  1  0
  1 10  1  0
  2  3  1  0
  2  7  1  0
  3  4  2  0
  3 11  1  0
  4  5  1  0
  5  6  1  0
  5  7  2  0
  6 12  1  0
  6 13  1  0
  7 14  1  0
M  END
> <intraLJ>
0.484     

> <intraEL>
-6.835    

> <intraDihe>
2.003     

> <interLJ>
0.000     

> <interEJ>
0.000     

> <gridLJ>
-2.947    

> <gridEL>
0.000     

> <totalE>
-7.295    

> <LGFE>
-2.947  

> <LE>
-0.421  

> <SMILES>
Cn1cnc(N)c1

> <atom.dprop.GFE>
-0.39 -0.23 -0.16 -0.71 -0.22 -0.98 -0.25 0 0 0 0 0 0 0

> <atom.prop.CLASS>
PRPC GEHC GEHC GENA GEHC GEND GEHC NCLA NCLA NCLA NCLA NCLA NCLA NCLA

$$$$
