35_3
     RDKit          3D

 10 10  0  0  0  0  0  0  0  0999 V2000
   -7.0302   10.9310   -6.7056 N   0  0  0  0  0  0  0  0  0  0  0  0
   -6.2766   11.0014   -7.8602 C   0  0  0  0  0  0  0  0  0  0  0  0
   -5.9011   12.0925   -8.4180 N   0  0  0  0  0  0  0  0  0  0  0  0
   -5.2061   11.6533   -9.4962 C   0  0  0  0  0  0  0  0  0  0  0  0
   -5.1355   10.3638   -9.6279 N   0  0  0  0  0  0  0  0  0  0  0  0
   -5.8303    9.9453   -8.5558 N   0  0  0  0  0  0  0  0  0  0  0  0
   -7.6889   10.1454   -6.6380 H   0  0  0  0  0  0  0  0  0  0  0  0
   -7.4379   11.8480   -6.4677 H   0  0  0  0  0  0  0  0  0  0  0  0
   -4.7487   12.3177  -10.1883 H   0  0  0  0  0  0  0  0  0  0  0  0
   -5.9887    8.9598   -8.2933 H   0  0  0  0  0  0  0  0  0  0  0  0
  1  2  1  0
  1  7  1  0
  1  8  1  0
  2  3  2  0
  2  6  1  0
  3  4  1  0
  4  5  2  0
  4  9  1  0
  5  6  1  0
  6 10  1  0
M  END
> <intraLJ>
-0.206    

> <intraEL>
-6.323    

> <intraDihe>
2.580     

> <interLJ>
0.000     

> <interEJ>
0.000     

> <gridLJ>
-4.421    

> <gridEL>
0.000     

> <totalE>
-8.370    

> <LGFE>
-4.421  

> <LE>
-0.737  

> <SMILES>
Nc1ncn[nH]1

> <atom.dprop.GFE>
-1 -0.31 -0.83 -0.16 -0.86 -1.3 0 0 0 0

> <atom.prop.CLASS>
GEND GEHC GENA GEHC GENA GEND NCLA NCLA NCLA NCLA

$$$$
