48_2
     RDKit          3D

 18 17  0  0  1  0  0  0  0  0999 V2000
   16.3391   -4.7847  -14.1569 C   0  0  0  0  0  0  0  0  0  0  0  0
   16.2173   -3.2620  -14.3512 C   0  0  0  0  0  0  0  0  0  0  0  0
   17.2498   -2.4455  -13.5556 C   0  0  0  0  0  0  0  0  0  0  0  0
   16.9456   -0.9959  -13.6890 N   0  0  0  0  0  0  0  0  0  0  0  0
   18.7019   -2.7628  -14.0229 C   0  0  0  0  0  0  0  0  0  0  0  0
   19.1709   -2.1234  -14.9512 O   0  0  0  0  0  0  0  0  0  0  0  0
   19.4475   -3.6833  -13.4258 N   0  0  0  0  0  0  0  0  0  0  0  0
   15.6433   -5.2886  -14.8330 H   0  0  0  0  0  0  0  0  0  0  0  0
   16.0818   -5.0791  -13.1388 H   0  0  0  0  0  0  0  0  0  0  0  0
   17.3487   -5.1249  -14.3966 H   0  0  0  0  0  0  0  0  0  0  0  0
   15.2092   -2.9439  -14.0772 H   0  0  0  0  0  0  0  0  0  0  0  0
   16.3496   -3.0469  -15.4134 H   0  0  0  0  0  0  0  0  0  0  0  0
   17.1753   -2.7379  -12.5062 H   0  0  0  0  0  0  0  0  0  0  0  0
   17.1728   -0.7285  -14.6398 H   0  0  0  0  0  0  0  0  0  0  0  0
   17.5705   -0.4665  -13.0969 H   0  0  0  0  0  0  0  0  0  0  0  0
   15.9792   -0.8040  -13.4793 H   0  0  0  0  0  0  0  0  0  0  0  0
   20.3798   -3.8146  -13.7955 H   0  0  0  0  0  0  0  0  0  0  0  0
   19.1238   -4.2484  -12.6565 H   0  0  0  0  0  0  0  0  0  0  0  0
  1  2  1  0
  1  8  1  0
  1  9  1  0
  1 10  1  0
  2  3  1  0
  2 11  1  0
  2 12  1  0
  3  4  1  0
  3  5  1  0
  3 13  1  0
  4 14  1  0
  4 15  1  0
  4 16  1  0
  5  6  2  0
  5  7  1  0
  7 17  1  0
  7 18  1  0
M  CHG  1   4   1
M  END
> <intraLJ>
0.459     

> <intraEL>
1.741     

> <intraDihe>
1.795     

> <interLJ>
0.000     

> <interEJ>
0.000     

> <gridLJ>
-2.851    

> <gridEL>
0.000     

> <totalE>
1.145     

> <LGFE>
-2.851  

> <LE>
-0.407  

> <SMILES>
CCC([NH3+])C(N)=O

> <atom.dprop.GFE>
0.084 0.18 -0.096 -2 0 -0.43 -0.62 0 0 0 0 0 0 0 0 0 0 0

> <atom.prop.CLASS>
PRPC PRPC PRPC MAMN NCLA GENA GEND NCLA NCLA NCLA NCLA NCLA NCLA NCLA NCLA NCLA NCLA NCLA

$$$$
