68_2
     RDKit          3D

 18 17  0  0  1  0  0  0  0  0999 V2000
  -22.0867  -15.6855   23.3421 C   0  0  0  0  0  0  0  0  0  0  0  0
  -22.1948  -15.3242   21.8639 C   0  0  0  0  0  0  0  0  0  0  0  0
  -20.8551  -15.0131   21.3453 N   0  0  0  0  0  0  0  0  0  0  0  0
  -23.1715  -14.1545   21.6644 C   0  0  0  0  0  0  0  0  0  0  0  0
  -24.5827  -14.5175   22.1005 C   0  0  0  0  0  0  0  0  0  0  0  0
  -25.0810  -14.0002   23.0888 O   0  0  0  0  0  0  0  0  0  0  0  0
  -25.2440  -15.4360   21.4278 N   0  0  0  0  0  0  0  0  0  0  0  0
  -23.0701  -15.9550   23.7295 H   0  0  0  0  0  0  0  0  0  0  0  0
  -21.7021  -14.8427   23.9189 H   0  0  0  0  0  0  0  0  0  0  0  0
  -21.4245  -16.5426   23.4716 H   0  0  0  0  0  0  0  0  0  0  0  0
  -22.5996  -16.1876   21.3245 H   0  0  0  0  0  0  0  0  0  0  0  0
  -20.4493  -14.2282   21.8291 H   0  0  0  0  0  0  0  0  0  0  0  0
  -20.9821  -14.7602   20.3605 H   0  0  0  0  0  0  0  0  0  0  0  0
  -20.2496  -15.8173   21.4043 H   0  0  0  0  0  0  0  0  0  0  0  0
  -23.1950  -13.8509   20.6187 H   0  0  0  0  0  0  0  0  0  0  0  0
  -22.8360  -13.3069   22.2628 H   0  0  0  0  0  0  0  0  0  0  0  0
  -26.1723  -15.6636   21.7524 H   0  0  0  0  0  0  0  0  0  0  0  0
  -24.8557  -15.8923   20.6194 H   0  0  0  0  0  0  0  0  0  0  0  0
  1  2  1  0
  1  8  1  0
  1  9  1  0
  1 10  1  0
  2  3  1  0
  2  4  1  0
  2 11  1  0
  3 12  1  0
  3 13  1  0
  3 14  1  0
  4  5  1  0
  4 15  1  0
  4 16  1  0
  5  6  2  0
  5  7  1  0
  7 17  1  0
  7 18  1  0
M  CHG  1   3   1
M  END
> <intraLJ>
0.778     

> <intraEL>
-7.296    

> <intraDihe>
0.103     

> <interLJ>
0.000     

> <interEJ>
0.000     

> <gridLJ>
-3.275    

> <gridEL>
0.000     

> <totalE>
-9.690    

> <LGFE>
-3.275  

> <LE>
-0.468  

> <SMILES>
CC([NH3+])CC(N)=O

> <atom.dprop.GFE>
-0.18 -0.037 -1.7 -0.2 0 -0.62 -0.55 0 0 0 0 0 0 0 0 0 0 0

> <atom.prop.CLASS>
PRPC PRPC MAMN PRPC NCLA GENA GEND NCLA NCLA NCLA NCLA NCLA NCLA NCLA NCLA NCLA NCLA NCLA

$$$$
