5
     RDKit          3D

 13 13  0  0  0  0  0  0  0  0999 V2000
   20.1478   13.6992   -5.3160 C   0  0  0  0  0  0  0  0  0  0  0  0
   18.9261   14.4345   -4.7605 C   0  0  0  0  0  0  0  0  0  0  0  0
   19.3371   15.9073   -4.7735 C   0  0  0  0  0  0  0  0  0  0  0  0
   20.5051   15.9595   -5.5664 O   0  0  0  0  0  0  0  0  0  0  0  0
   21.2295   14.7736   -5.3216 C   0  0  0  0  0  0  0  0  0  0  0  0
   19.9554   13.3765   -6.3407 H   0  0  0  0  0  0  0  0  0  0  0  0
   20.4321   12.8529   -4.6917 H   0  0  0  0  0  0  0  0  0  0  0  0
   18.7093   14.1165   -3.7400 H   0  0  0  0  0  0  0  0  0  0  0  0
   18.0604   14.2747   -5.4027 H   0  0  0  0  0  0  0  0  0  0  0  0
   19.5705   16.2347   -3.7582 H   0  0  0  0  0  0  0  0  0  0  0  0
   18.5509   16.5350   -5.1959 H   0  0  0  0  0  0  0  0  0  0  0  0
   21.9704   14.5908   -6.1010 H   0  0  0  0  0  0  0  0  0  0  0  0
   21.7123   14.8271   -4.3441 H   0  0  0  0  0  0  0  0  0  0  0  0
  1  2  1  0
  1  5  1  0
  1  6  1  0
  1  7  1  0
  2  3  1  0
  2  8  1  0
  2  9  1  0
  3  4  1  0
  3 10  1  0
  3 11  1  0
  4  5  1  0
  5 12  1  0
  5 13  1  0
M  END
> <intraLJ>
-0.357    

> <intraEL>
0.089     

> <intraDihe>
7.745     

> <interLJ>
0.000     

> <interEJ>
0.000     

> <gridLJ>
-3.578    

> <gridEL>
0.000     

> <totalE>
3.899     

> <LGFE>
-3.578  

> <LE>
-0.716  

> <SMILES>
C1CCOC1

> <atom.dprop.GFE>
-0.55 -0.67 -0.62 -1.1 -0.63 0 0 0 0 0 0 0 0

> <atom.prop.CLASS>
PRPC PRPC PRPC GENA PRPC NCLA NCLA NCLA NCLA NCLA NCLA NCLA NCLA

$$$$
