6
     RDKit          3D

 10 10  0  0  0  0  0  0  0  0999 V2000
   25.8668   13.3554   -9.1397 N   0  0  0  0  0  0  0  0  0  0  0  0
   25.3653   14.2580   -8.2210 C   0  0  0  0  0  0  0  0  0  0  0  0
   25.5477   14.2256   -6.8466 C   0  0  0  0  0  0  0  0  0  0  0  0
   24.8884   15.2972   -6.3876 C   0  0  0  0  0  0  0  0  0  0  0  0
   24.3468   15.9307   -7.4404 O   0  0  0  0  0  0  0  0  0  0  0  0
   24.6557   15.2651   -8.5842 N   0  0  0  0  0  0  0  0  0  0  0  0
   25.8638   13.7776  -10.0774 H   0  0  0  0  0  0  0  0  0  0  0  0
   26.7797   12.9784   -8.8605 H   0  0  0  0  0  0  0  0  0  0  0  0
   26.0825   13.5083   -6.2838 H   0  0  0  0  0  0  0  0  0  0  0  0
   24.7560   15.6658   -5.4025 H   0  0  0  0  0  0  0  0  0  0  0  0
  1  2  1  0
  1  7  1  0
  1  8  1  0
  2  3  1  0
  2  6  2  0
  3  4  2  0
  3  9  1  0
  4  5  1  0
  4 10  1  0
  5  6  1  0
M  END
> <intraLJ>
-0.275    

> <intraEL>
-7.962    

> <intraDihe>
1.578     

> <interLJ>
0.000     

> <interEJ>
0.000     

> <gridLJ>
-2.493    

> <gridEL>
0.000     

> <totalE>
-9.152    

> <LGFE>
-2.493  

> <LE>
-0.415  

> <SMILES>
Nc1ccon1

> <atom.dprop.GFE>
-0.56 -0.19 -0.17 -0.12 -0.76 -0.69 0 0 0 0

> <atom.prop.CLASS>
GEND GEHC GEHC GEHC GENA GENA NCLA NCLA NCLA NCLA

$$$$
