32
     RDKit          3D

 17 16  0  0  0  0  0  0  0  0999 V2000
   23.2985    1.0320  -18.7893 C   0  0  0  0  0  0  0  0  0  0  0  0
   24.5636    0.5896  -19.5204 C   0  0  0  0  0  0  0  0  0  0  0  0
   25.8053    1.2117  -18.8840 C   0  0  0  0  0  0  0  0  0  0  0  0
   24.4634    1.1264  -20.8634 N   0  0  0  0  0  0  0  0  0  0  0  0
   24.2134    0.4076  -21.9738 C   0  0  0  0  0  0  0  0  0  0  0  0
   23.7820   -0.7248  -21.9085 O   0  0  0  0  0  0  0  0  0  0  0  0
   24.4709    0.9770  -23.1524 N   0  0  0  0  0  0  0  0  0  0  0  0
   23.3261    0.6753  -17.7601 H   0  0  0  0  0  0  0  0  0  0  0  0
   22.4242    0.6098  -19.2864 H   0  0  0  0  0  0  0  0  0  0  0  0
   23.2192    2.1192  -18.7883 H   0  0  0  0  0  0  0  0  0  0  0  0
   24.6363   -0.4986  -19.4853 H   0  0  0  0  0  0  0  0  0  0  0  0
   25.7363    2.2994  -18.8994 H   0  0  0  0  0  0  0  0  0  0  0  0
   26.6922    0.9040  -19.4383 H   0  0  0  0  0  0  0  0  0  0  0  0
   25.8989    0.8725  -17.8531 H   0  0  0  0  0  0  0  0  0  0  0  0
   25.0156    1.9688  -21.0585 H   0  0  0  0  0  0  0  0  0  0  0  0
   24.4630    0.3352  -23.9526 H   0  0  0  0  0  0  0  0  0  0  0  0
   25.1073    1.7752  -23.1550 H   0  0  0  0  0  0  0  0  0  0  0  0
  1  2  1  0
  1  8  1  0
  1  9  1  0
  1 10  1  0
  2  3  1  0
  2  4  1  0
  2 11  1  0
  3 12  1  0
  3 13  1  0
  3 14  1  0
  4  5  1  0
  4 15  1  0
  5  6  2  0
  5  7  1  0
  7 16  1  0
  7 17  1  0
M  END
> <intraLJ>
-0.736    

> <intraEL>
-9.445    

> <intraDihe>
5.517     

> <interLJ>
0.000     

> <interEJ>
0.000     

> <gridLJ>
-2.068    

> <gridEL>
0.000     

> <totalE>
-6.732    

> <LGFE>
-2.068  

> <LE>
-0.295  

> <SMILES>
CC(C)NC(N)=O

> <atom.dprop.GFE>
-0.42 -0.34 -0.22 -0.087 0 -0.67 -0.34 0 0 0 0 0 0 0 0 0 0

> <atom.prop.CLASS>
PRPC PRPC PRPC GEND NCLA GENA GEND NCLA NCLA NCLA NCLA NCLA NCLA NCLA NCLA NCLA NCLA

$$$$
