3
     RDKit          3D

  9  9  0  0  0  0  0  0  0  0999 V2000
    9.7757   14.0451  -37.5680 C   0  0  0  0  0  0  0  0  0  0  0  0
    9.5330   14.1690  -36.2051 C   0  0  0  0  0  0  0  0  0  0  0  0
    9.0105   13.0740  -35.7217 N   0  0  0  0  0  0  0  0  0  0  0  0
    8.9138   12.2355  -36.7875 N   0  0  0  0  0  0  0  0  0  0  0  0
    9.3747   12.8045  -37.9235 C   0  0  0  0  0  0  0  0  0  0  0  0
   10.1932   14.7814  -38.2060 H   0  0  0  0  0  0  0  0  0  0  0  0
    9.7372   15.0260  -35.6153 H   0  0  0  0  0  0  0  0  0  0  0  0
    8.5296   11.2746  -36.7140 H   0  0  0  0  0  0  0  0  0  0  0  0
    9.3781   12.3009  -38.8542 H   0  0  0  0  0  0  0  0  0  0  0  0
  1  2  1  0
  1  5  2  0
  1  6  1  0
  2  3  2  0
  2  7  1  0
  3  4  1  0
  4  5  1  0
  4  8  1  0
  5  9  1  0
M  END
> <intraLJ>
-0.423    

> <intraEL>
0.053     

> <intraDihe>
0.000     

> <interLJ>
0.000     

> <interEJ>
0.000     

> <gridLJ>
-2.631    

> <gridEL>
0.000     

> <totalE>
-3.000    

> <LGFE>
-2.631  

> <LE>
-0.526  

> <SMILES>
c1cn[nH]c1

> <atom.dprop.GFE>
-0.19 -0.088 -1.6 -0.75 -0.041 0 0 0 0

> <atom.prop.CLASS>
GEHC GEHC GENA GEND GEHC NCLA NCLA NCLA NCLA

$$$$
