33
     RDKit          3D

 12 12  0  0  0  0  0  0  0  0999 V2000
  -20.2639    0.4527   25.1633 N   0  0  0  0  0  0  0  0  0  0  0  0
  -19.8325    0.1993   26.4360 C   0  0  0  0  0  0  0  0  0  0  0  0
  -18.4938   -0.0397   26.7126 C   0  0  0  0  0  0  0  0  0  0  0  0
  -18.1497   -0.2981   28.0301 C   0  0  0  0  0  0  0  0  0  0  0  0
  -19.1561   -0.3030   28.9864 C   0  0  0  0  0  0  0  0  0  0  0  0
  -20.4345   -0.0633   28.6543 N   0  0  0  0  0  0  0  0  0  0  0  0
  -20.7753    0.1868   27.3900 N   0  0  0  0  0  0  0  0  0  0  0  0
  -21.2845    0.3646   25.0703 H   0  0  0  0  0  0  0  0  0  0  0  0
  -19.7095    0.0234   24.4135 H   0  0  0  0  0  0  0  0  0  0  0  0
  -17.7691   -0.0170   25.9424 H   0  0  0  0  0  0  0  0  0  0  0  0
  -17.1444   -0.4859   28.3052 H   0  0  0  0  0  0  0  0  0  0  0  0
  -18.9380   -0.4957   30.0053 H   0  0  0  0  0  0  0  0  0  0  0  0
  1  2  1  0
  1  8  1  0
  1  9  1  0
  2  3  2  0
  2  7  1  0
  3  4  1  0
  3 10  1  0
  4  5  2  0
  4 11  1  0
  5  6  1  0
  5 12  1  0
  6  7  2  0
M  END
> <intraLJ>
16.642    

> <intraEL>
-7.622    

> <intraDihe>
1.828     

> <interLJ>
0.000     

> <interEJ>
0.000     

> <gridLJ>
-2.703    

> <gridEL>
0.000     

> <totalE>
8.144     

> <LGFE>
-2.703  

> <LE>
-0.386  

> <SMILES>
Nc1cccnn1

> <atom.dprop.GFE>
-0.69 -0.2 -0.059 -0.08 -0.12 -0.75 -0.8 0 0 0 0 0

> <atom.prop.CLASS>
GEND GEHC BENC BENC BENC GENA GENA NCLA NCLA NCLA NCLA NCLA

$$$$
