23_3
     RDKit          3D

 11 11  0  0  0  0  0  0  0  0999 V2000
   -5.2854   -7.4734    3.2836 O   0  0  0  0  0  0  0  0  0  0  0  0
   -6.1392   -8.2037    2.8042 C   0  0  0  0  0  0  0  0  0  0  0  0
   -6.2128   -9.4677    3.3143 N   0  0  0  0  0  0  0  0  0  0  0  0
   -7.1244  -10.3928    2.8693 C   0  0  0  0  0  0  0  0  0  0  0  0
   -7.9725  -10.0004    1.8803 C   0  0  0  0  0  0  0  0  0  0  0  0
   -7.8820   -8.6780    1.3601 C   0  0  0  0  0  0  0  0  0  0  0  0
   -7.0199   -7.8321    1.7941 N   0  0  0  0  0  0  0  0  0  0  0  0
   -5.5325   -9.6748    4.0584 H   0  0  0  0  0  0  0  0  0  0  0  0
   -7.1045  -11.3511    3.3283 H   0  0  0  0  0  0  0  0  0  0  0  0
   -8.7007  -10.6599    1.4884 H   0  0  0  0  0  0  0  0  0  0  0  0
   -8.5457   -8.3763    0.5893 H   0  0  0  0  0  0  0  0  0  0  0  0
  1  2  2  0
  2  3  1  0
  2  7  1  0
  3  4  1  0
  3  8  1  0
  4  5  2  0
  4  9  1  0
  5  6  1  0
  5 10  1  0
  6  7  2  0
  6 11  1  0
M  END
> <intraLJ>
11.692    

> <intraEL>
-4.846    

> <intraDihe>
0.000     

> <interLJ>
0.000     

> <interEJ>
0.000     

> <gridLJ>
-4.139    

> <gridEL>
0.000     

> <totalE>
2.708     

> <LGFE>
-4.139  

> <LE>
-0.591  

> <SMILES>
O=c1nccc[nH]1

> <atom.dprop.GFE>
-1.3 -0.27 -0.84 -0.18 -0.17 -0.13 -1.3 0 0 0 0

> <atom.prop.CLASS>
GENA GEHC GEND BENC BENC BENC GENA NCLA NCLA NCLA NCLA

$$$$
