38
     RDKit          3D

 11 11  0  0  0  0  0  0  0  0999 V2000
    1.8767   -2.5697   -3.7197 C   0  0  0  0  0  0  0  0  0  0  0  0
    0.7050   -3.1533   -4.1824 C   0  0  0  0  0  0  0  0  0  0  0  0
    0.4435   -3.1779   -5.5497 C   0  0  0  0  0  0  0  0  0  0  0  0
    1.2917   -2.6542   -6.4344 N   0  0  0  0  0  0  0  0  0  0  0  0
    2.4217   -2.0884   -6.0094 C   0  0  0  0  0  0  0  0  0  0  0  0
    2.7460   -2.0295   -4.6566 C   0  0  0  0  0  0  0  0  0  0  0  0
    2.0999   -2.5382   -2.6840 H   0  0  0  0  0  0  0  0  0  0  0  0
    0.0135   -3.5780   -3.5023 H   0  0  0  0  0  0  0  0  0  0  0  0
   -0.4475   -3.6211   -5.9161 H   0  0  0  0  0  0  0  0  0  0  0  0
    3.0773   -1.6794   -6.7357 H   0  0  0  0  0  0  0  0  0  0  0  0
    3.6507   -1.5737   -4.3484 H   0  0  0  0  0  0  0  0  0  0  0  0
  1  2  2  0
  1  6  1  0
  1  7  1  0
  2  3  1  0
  2  8  1  0
  3  4  2  0
  3  9  1  0
  4  5  1  0
  5  6  2  0
  5 10  1  0
  6 11  1  0
M  END
> <intraLJ>
12.613    

> <intraEL>
0.241     

> <intraDihe>
0.000     

> <interLJ>
0.000     

> <interEJ>
0.000     

> <gridLJ>
-3.001    

> <gridEL>
0.000     

> <totalE>
9.854     

> <LGFE>
-3.001  

> <LE>
-0.500  

> <SMILES>
c1ccncc1

> <atom.dprop.GFE>
-0.29 -0.26 -0.22 -1.8 -0.22 -0.22 0 0 0 0 0

> <atom.prop.CLASS>
BENC BENC GEHC GENA GEHC BENC NCLA NCLA NCLA NCLA NCLA

$$$$
