27_2
     RDKit          3D

 12 12  0  0  0  0  0  0  0  0999 V2000
   21.0887   -0.3640  -19.2417 N   0  0  0  0  0  0  0  0  0  0  0  0
   20.0671   -1.1625  -19.4397 C   0  0  0  0  0  0  0  0  0  0  0  0
   18.8061   -0.8485  -19.2507 N   0  0  0  0  0  0  0  0  0  0  0  0
   18.0202   -1.9436  -19.5627 C   0  0  0  0  0  0  0  0  0  0  0  0
   18.8624   -2.9258  -19.9451 C   0  0  0  0  0  0  0  0  0  0  0  0
   20.1419   -2.4054  -19.8572 N   0  0  0  0  0  0  0  0  0  0  0  0
   22.0452   -0.6953  -19.4153 H   0  0  0  0  0  0  0  0  0  0  0  0
   20.9378    0.5965  -18.9128 H   0  0  0  0  0  0  0  0  0  0  0  0
   18.4943    0.0763  -18.9232 H   0  0  0  0  0  0  0  0  0  0  0  0
   16.9599   -1.9384  -19.4906 H   0  0  0  0  0  0  0  0  0  0  0  0
   18.6593   -3.9194  -20.2618 H   0  0  0  0  0  0  0  0  0  0  0  0
   21.0291   -2.8788  -20.0734 H   0  0  0  0  0  0  0  0  0  0  0  0
  1  2  2  0
  1  7  1  0
  1  8  1  0
  2  3  1  0
  2  6  1  0
  3  4  1  0
  3  9  1  0
  4  5  2  0
  4 10  1  0
  5  6  1  0
  5 11  1  0
  6 12  1  0
M  CHG  1   1   1
M  END
> <intraLJ>
-0.384    

> <intraEL>
3.349     

> <intraDihe>
0.000     

> <interLJ>
0.000     

> <interEJ>
0.000     

> <gridLJ>
-2.213    

> <gridEL>
0.000     

> <totalE>
0.752     

> <LGFE>
-2.213  

> <LE>
-0.369  

> <SMILES>
[NH2+]=c1[nH]cc[nH]1

> <atom.dprop.GFE>
-1.5 -0.41 0 -0.093 -0.18 0 0 0 0 0 0 0

> <atom.prop.CLASS>
MAMN MAMC NCLA GEHC GEHC NCLA NCLA NCLA NCLA NCLA NCLA NCLA

$$$$
