71_2
     RDKit          3D

 19 19  0  0  0  0  0  0  0  0999 V2000
  -36.5246   -0.9039    9.4270 C   0  0  0  0  0  0  0  0  0  0  0  0
  -35.3011   -0.0971    9.8567 C   0  0  0  0  0  0  0  0  0  0  0  0
  -34.0670   -0.9142   10.0066 N   0  0  0  0  0  0  0  0  0  0  0  0
  -34.2422   -2.2350   10.6846 C   0  0  0  0  0  0  0  0  0  0  0  0
  -35.2536   -2.2362   11.8389 C   0  0  0  0  0  0  0  0  0  0  0  0
  -36.5415   -2.5142   11.2997 O   0  0  0  0  0  0  0  0  0  0  0  0
  -37.2503   -1.4598   10.6622 C   0  0  0  0  0  0  0  0  0  0  0  0
  -36.2582   -1.7087    8.7409 H   0  0  0  0  0  0  0  0  0  0  0  0
  -37.2142   -0.2323    8.9134 H   0  0  0  0  0  0  0  0  0  0  0  0
  -35.5495    0.3689   10.8153 H   0  0  0  0  0  0  0  0  0  0  0  0
  -35.1250    0.7107    9.1395 H   0  0  0  0  0  0  0  0  0  0  0  0
  -33.3913   -0.3584   10.5160 H   0  0  0  0  0  0  0  0  0  0  0  0
  -33.6736   -1.0975    9.0903 H   0  0  0  0  0  0  0  0  0  0  0  0
  -33.2781   -2.6126   11.0362 H   0  0  0  0  0  0  0  0  0  0  0  0
  -34.6312   -2.9595    9.9644 H   0  0  0  0  0  0  0  0  0  0  0  0
  -35.2346   -1.3025   12.4026 H   0  0  0  0  0  0  0  0  0  0  0  0
  -34.9944   -3.0532   12.5151 H   0  0  0  0  0  0  0  0  0  0  0  0
  -38.2156   -1.8579   10.3411 H   0  0  0  0  0  0  0  0  0  0  0  0
  -37.4517   -0.6590   11.3768 H   0  0  0  0  0  0  0  0  0  0  0  0
  1  2  1  0
  1  7  1  0
  1  8  1  0
  1  9  1  0
  2  3  1  0
  2 10  1  0
  2 11  1  0
  3  4  1  0
  3 12  1  0
  3 13  1  0
  4  5  1  0
  4 14  1  0
  4 15  1  0
  5  6  1  0
  5 16  1  0
  5 17  1  0
  6  7  1  0
  7 18  1  0
  7 19  1  0
M  CHG  1   3   1
M  END
> <intraLJ>
1.159     

> <intraEL>
4.103     

> <intraDihe>
11.900    

> <interLJ>
0.000     

> <interEJ>
0.000     

> <gridLJ>
-2.580    

> <gridEL>
0.000     

> <totalE>
14.582    

> <LGFE>
-2.580  

> <LE>
-0.369  

> <SMILES>
C1C[NH2+]CCOC1

> <atom.dprop.GFE>
-0.071 0.11 -2 -0.001 -0.15 -0.41 -0.087 0 0 0 0 0 0 0 0 0 0 0 0

> <atom.prop.CLASS>
PRPC PRPC MAMN PRPC PRPC GENA PRPC NCLA NCLA NCLA NCLA NCLA NCLA NCLA NCLA NCLA NCLA NCLA NCLA

$$$$
