57_2
     RDKit          3D

 14 14  0  0  0  0  0  0  0  0999 V2000
    1.4084    4.2600  -37.9035 O   0  0  0  0  0  0  0  0  0  0  0  0
    1.3661    3.0120  -37.8061 C   0  0  0  0  0  0  0  0  0  0  0  0
    0.8304    2.4318  -36.8329 O   0  0  0  0  0  0  0  0  0  0  0  0
    1.9248    2.1727  -38.9403 C   0  0  0  0  0  0  0  0  0  0  0  0
    2.6971    0.9093  -38.4626 C   0  0  0  0  0  0  0  0  0  0  0  0
    3.7115    1.2106  -39.6040 C   0  0  0  0  0  0  0  0  0  0  0  0
    3.2772    2.7015  -39.5012 C   0  0  0  0  0  0  0  0  0  0  0  0
    1.1760    1.9762  -39.6975 H   0  0  0  0  0  0  0  0  0  0  0  0
    2.1519   -0.0169  -38.5882 H   0  0  0  0  0  0  0  0  0  0  0  0
    3.1394    1.0217  -37.4810 H   0  0  0  0  0  0  0  0  0  0  0  0
    3.4255    0.7578  -40.5456 H   0  0  0  0  0  0  0  0  0  0  0  0
    4.7438    1.0319  -39.3365 H   0  0  0  0  0  0  0  0  0  0  0  0
    3.8594    3.2503  -38.7714 H   0  0  0  0  0  0  0  0  0  0  0  0
    3.1930    3.2052  -40.4546 H   0  0  0  0  0  0  0  0  0  0  0  0
  1  2  2  0
  2  3  1  0
  2  4  1  0
  4  5  1  0
  4  7  1  0
  4  8  1  0
  5  6  1  0
  5  9  1  0
  5 10  1  0
  6  7  1  0
  6 11  1  0
  6 12  1  0
  7 13  1  0
  7 14  1  0
M  CHG  1   3  -1
M  END
> <intraLJ>
0.196     

> <intraEL>
2.089     

> <intraDihe>
17.601    

> <interLJ>
0.000     

> <interEJ>
0.000     

> <gridLJ>
-2.382    

> <gridEL>
0.000     

> <totalE>
17.504    

> <LGFE>
-2.382  

> <LE>
-0.340  

> <SMILES>
O=C([O-])C1CCC1

> <atom.dprop.GFE>
0 -0.69 0 -0.46 -0.43 -0.39 -0.41 0 0 0 0 0 0 0

> <atom.prop.CLASS>
NCLA ACEC NCLA PRPC PRPC PRPC PRPC NCLA NCLA NCLA NCLA NCLA NCLA NCLA

$$$$
