35_2
     RDKit          3D

 10 10  0  0  0  0  0  0  0  0999 V2000
  -20.2243    4.4115   -5.5929 N   0  0  0  0  0  0  0  0  0  0  0  0
  -21.2909    4.8748   -4.8450 C   0  0  0  0  0  0  0  0  0  0  0  0
  -22.0374    5.9049   -5.2202 N   0  0  0  0  0  0  0  0  0  0  0  0
  -22.9613    6.0676   -4.2699 C   0  0  0  0  0  0  0  0  0  0  0  0
  -22.7901    5.1807   -3.3475 N   0  0  0  0  0  0  0  0  0  0  0  0
  -21.7025    4.4033   -3.7135 N   0  0  0  0  0  0  0  0  0  0  0  0
  -19.9118    3.4859   -5.2617 H   0  0  0  0  0  0  0  0  0  0  0  0
  -20.3364    4.4714   -6.6128 H   0  0  0  0  0  0  0  0  0  0  0  0
  -21.9026    6.4657   -6.0704 H   0  0  0  0  0  0  0  0  0  0  0  0
  -23.6949    6.8309   -4.3199 H   0  0  0  0  0  0  0  0  0  0  0  0
  1  2  1  0
  1  7  1  0
  1  8  1  0
  2  3  1  0
  2  6  2  0
  3  4  1  0
  3  9  1  0
  4  5  2  0
  4 10  1  0
  5  6  1  0
M  END
> <intraLJ>
-0.237    

> <intraEL>
-7.007    

> <intraDihe>
2.733     

> <interLJ>
0.000     

> <interEJ>
0.000     

> <gridLJ>
-4.082    

> <gridEL>
0.000     

> <totalE>
-8.594    

> <LGFE>
-4.082  

> <LE>
-0.680  

> <SMILES>
Nc1nnc[nH]1

> <atom.dprop.GFE>
-0.66 -0.16 -0.77 -0.16 -1.1 -1.2 0 0 0 0

> <atom.prop.CLASS>
GEND GEHC GEND GEHC GENA GENA NCLA NCLA NCLA NCLA

$$$$
