2_1
     RDKit          3D

 15 15  0  0  0  0  0  0  0  0999 V2000
  -34.4578    9.2523   14.4201 C   0  0  0  0  0  0  0  0  0  0  0  0
  -33.2119   10.0216   14.8966 C   0  0  0  0  0  0  0  0  0  0  0  0
  -32.2636   10.1703   13.8385 O   0  0  0  0  0  0  0  0  0  0  0  0
  -31.8530    8.9048   13.3180 C   0  0  0  0  0  0  0  0  0  0  0  0
  -33.0597    8.1024   12.7954 C   0  0  0  0  0  0  0  0  0  0  0  0
  -34.0958    7.9288   13.8473 N   0  0  0  0  0  0  0  0  0  0  0  0
  -34.9585    9.8576   13.6616 H   0  0  0  0  0  0  0  0  0  0  0  0
  -35.1384    9.1175   15.2618 H   0  0  0  0  0  0  0  0  0  0  0  0
  -32.7557    9.4775   15.7244 H   0  0  0  0  0  0  0  0  0  0  0  0
  -33.5122   11.0081   15.2507 H   0  0  0  0  0  0  0  0  0  0  0  0
  -31.3582    8.3281   14.1004 H   0  0  0  0  0  0  0  0  0  0  0  0
  -31.1476    9.0629   12.5019 H   0  0  0  0  0  0  0  0  0  0  0  0
  -32.7170    7.1267   12.4489 H   0  0  0  0  0  0  0  0  0  0  0  0
  -33.4836    8.6431   11.9465 H   0  0  0  0  0  0  0  0  0  0  0  0
  -34.9131    7.4578   13.4767 H   0  0  0  0  0  0  0  0  0  0  0  0
  1  2  1  0
  1  6  1  0
  1  7  1  0
  1  8  1  0
  2  3  1  0
  2  9  1  0
  2 10  1  0
  3  4  1  0
  4  5  1  0
  4 11  1  0
  4 12  1  0
  5  6  1  0
  5 13  1  0
  5 14  1  0
  6 15  1  0
M  END
> <intraLJ>
0.516     

> <intraEL>
2.915     

> <intraDihe>
4.772     

> <interLJ>
0.000     

> <interEJ>
0.000     

> <gridLJ>
-2.384    

> <gridEL>
0.000     

> <totalE>
5.819     

> <LGFE>
-2.384  

> <LE>
-0.397  

> <SMILES>
C1COCCN1

> <atom.dprop.GFE>
-0.39 -0.32 -0.54 -0.28 -0.33 -0.51 0 0 0 0 0 0 0 0 0

> <atom.prop.CLASS>
PRPC PRPC GENA PRPC PRPC GEND NCLA NCLA NCLA NCLA NCLA NCLA NCLA NCLA NCLA

$$$$
