10_1
     RDKit          3D

  8  7  0  0  0  0  0  0  0  0999 V2000
   22.9336    6.8805   -6.7708 O   0  0  0  0  0  0  0  0  0  0  0  0
   23.3667    6.7502   -8.1502 P   0  0  0  0  0  0  0  0  0  0  0  0
   22.2598    7.0916   -9.1202 O   0  0  0  0  0  0  0  0  0  0  0  0
   24.5270    7.6654   -8.4638 O   0  0  0  0  0  0  0  0  0  0  0  0
   23.8144    5.3430   -8.4671 O   0  0  0  0  0  0  0  0  0  0  0  0
   21.4930    7.3265   -8.5884 H   0  0  0  0  0  0  0  0  0  0  0  0
   24.7253    8.1441   -7.6512 H   0  0  0  0  0  0  0  0  0  0  0  0
   23.7096    4.8329   -7.6571 H   0  0  0  0  0  0  0  0  0  0  0  0
  1  2  2  0
  2  3  1  0
  2  4  1  0
  2  5  1  0
  3  6  1  0
  4  7  1  0
  5  8  1  0
M  END
> <intraLJ>
-0.194    

> <intraEL>
-23.203   

> <intraDihe>
5.381     

> <interLJ>
0.000     

> <interEJ>
0.000     

> <gridLJ>
-3.159    

> <gridEL>
0.000     

> <totalE>
-21.175   

> <LGFE>
-3.159  

> <LE>
-0.632  

> <SMILES>
O=P(O)(O)O

> <atom.dprop.GFE>
-1.2 0 -0.62 -0.68 -0.62 0 0 0

> <atom.prop.CLASS>
GENA NCLA MEOO MEOO MEOO NCLA NCLA NCLA

$$$$
