29_2
     RDKit          3D

 13 13  0  0  0  0  0  0  0  0999 V2000
   20.5178   -1.1955  -15.7071 N   0  0  0  0  0  0  0  0  0  0  0  0
   21.5700   -0.4765  -16.2589 C   0  0  0  0  0  0  0  0  0  0  0  0
   22.7372   -0.0989  -15.6880 C   0  0  0  0  0  0  0  0  0  0  0  0
   23.7290    0.7600  -16.8238 S   0  0  0  0  0  0  0  0  0  0  0  0
   22.5266    0.5515  -18.0228 C   0  0  0  0  0  0  0  0  0  0  0  0
   22.6353    0.9987  -19.2883 N   0  0  0  0  0  0  0  0  0  0  0  0
   21.4591   -0.1090  -17.5743 N   0  0  0  0  0  0  0  0  0  0  0  0
   19.5721   -0.9048  -15.9981 H   0  0  0  0  0  0  0  0  0  0  0  0
   20.5876   -1.2695  -14.6765 H   0  0  0  0  0  0  0  0  0  0  0  0
   23.0531   -0.2793  -14.6917 H   0  0  0  0  0  0  0  0  0  0  0  0
   21.9052    0.8520  -20.0000 H   0  0  0  0  0  0  0  0  0  0  0  0
   23.4972    1.4990  -19.5677 H   0  0  0  0  0  0  0  0  0  0  0  0
   20.6584   -0.3607  -18.1616 H   0  0  0  0  0  0  0  0  0  0  0  0
  1  2  1  0
  1  8  1  0
  1  9  1  0
  2  3  2  0
  2  7  1  0
  3  4  1  0
  3 10  1  0
  4  5  1  0
  5  6  2  0
  5  7  1  0
  6 11  1  0
  6 12  1  0
  7 13  1  0
M  CHG  1   6   1
M  END
> <intraLJ>
-0.730    

> <intraEL>
-5.242    

> <intraDihe>
2.059     

> <interLJ>
0.000     

> <interEJ>
0.000     

> <gridLJ>
-5.448    

> <gridEL>
0.000     

> <totalE>
-9.361    

> <LGFE>
-5.448  

> <LE>
-0.778  

> <SMILES>
Nc1csc(=[NH2+])[nH]1

> <atom.dprop.GFE>
-0.55 -0.038 -0.088 -0.27 -2.4 -2.1 0 0 0 0 0 0 0

> <atom.prop.CLASS>
GEND GEHC GEHC PRPC MAMC MAMN NCLA NCLA NCLA NCLA NCLA NCLA NCLA

$$$$
