2_1
     RDKit          3D

 15 15  0  0  0  0  0  0  0  0999 V2000
   -3.1086    4.4770  -11.1215 C   0  0  0  0  0  0  0  0  0  0  0  0
   -3.5127    5.8967  -10.6828 C   0  0  0  0  0  0  0  0  0  0  0  0
   -4.9275    6.0770  -10.7645 O   0  0  0  0  0  0  0  0  0  0  0  0
   -5.4116    5.8483  -12.0890 C   0  0  0  0  0  0  0  0  0  0  0  0
   -5.0628    4.4268  -12.5691 C   0  0  0  0  0  0  0  0  0  0  0  0
   -3.6010    4.1681  -12.4901 N   0  0  0  0  0  0  0  0  0  0  0  0
   -3.5353    3.7691  -10.4079 H   0  0  0  0  0  0  0  0  0  0  0  0
   -2.0219    4.3889  -11.0906 H   0  0  0  0  0  0  0  0  0  0  0  0
   -3.0126    6.6213  -11.3266 H   0  0  0  0  0  0  0  0  0  0  0  0
   -3.1886    6.0611   -9.6548 H   0  0  0  0  0  0  0  0  0  0  0  0
   -4.9660    6.5711  -12.7736 H   0  0  0  0  0  0  0  0  0  0  0  0
   -6.4943    5.9756  -12.1035 H   0  0  0  0  0  0  0  0  0  0  0  0
   -5.4055    4.3027  -13.5970 H   0  0  0  0  0  0  0  0  0  0  0  0
   -5.5975    3.7152  -11.9364 H   0  0  0  0  0  0  0  0  0  0  0  0
   -3.3881    3.2105  -12.7449 H   0  0  0  0  0  0  0  0  0  0  0  0
  1  2  1  0
  1  6  1  0
  1  7  1  0
  1  8  1  0
  2  3  1  0
  2  9  1  0
  2 10  1  0
  3  4  1  0
  4  5  1  0
  4 11  1  0
  4 12  1  0
  5  6  1  0
  5 13  1  0
  5 14  1  0
  6 15  1  0
M  END
> <intraLJ>
0.516     

> <intraEL>
2.915     

> <intraDihe>
4.772     

> <interLJ>
0.000     

> <interEJ>
0.000     

> <gridLJ>
-2.128    

> <gridEL>
0.000     

> <totalE>
6.075     

> <LGFE>
-2.128  

> <LE>
-0.355  

> <SMILES>
C1COCCN1

> <atom.dprop.GFE>
-0.2 -0.27 -0.82 -0.23 -0.21 -0.39 0 0 0 0 0 0 0 0 0

> <atom.prop.CLASS>
PRPC PRPC GENA PRPC PRPC GEND NCLA NCLA NCLA NCLA NCLA NCLA NCLA NCLA NCLA

$$$$
