71_1
     RDKit          3D

 18 18  0  0  0  0  0  0  0  0999 V2000
   -1.0337   12.7053   10.1402 C   0  0  0  0  0  0  0  0  0  0  0  0
   -0.0231   12.7244    8.9877 C   0  0  0  0  0  0  0  0  0  0  0  0
   -0.6140   13.1015    7.6811 N   0  0  0  0  0  0  0  0  0  0  0  0
   -2.0085   12.6615    7.4056 C   0  0  0  0  0  0  0  0  0  0  0  0
   -2.3210   11.2266    7.8543 C   0  0  0  0  0  0  0  0  0  0  0  0
   -2.7869   11.2091    9.2025 O   0  0  0  0  0  0  0  0  0  0  0  0
   -1.7956   11.3724   10.2090 C   0  0  0  0  0  0  0  0  0  0  0  0
   -1.7295   13.5400   10.0540 H   0  0  0  0  0  0  0  0  0  0  0  0
   -0.4821   12.8204   11.0714 H   0  0  0  0  0  0  0  0  0  0  0  0
    0.4284   11.7335    8.9112 H   0  0  0  0  0  0  0  0  0  0  0  0
    0.7756   13.4318    9.2216 H   0  0  0  0  0  0  0  0  0  0  0  0
    0.0130   12.8214    6.9379 H   0  0  0  0  0  0  0  0  0  0  0  0
   -2.2107   12.7604    6.3383 H   0  0  0  0  0  0  0  0  0  0  0  0
   -2.7030   13.3222    7.9274 H   0  0  0  0  0  0  0  0  0  0  0  0
   -1.4504   10.5831    7.7232 H   0  0  0  0  0  0  0  0  0  0  0  0
   -3.1259   10.8485    7.2243 H   0  0  0  0  0  0  0  0  0  0  0  0
   -2.3017   11.3231   11.1749 H   0  0  0  0  0  0  0  0  0  0  0  0
   -1.0888   10.5412   10.1674 H   0  0  0  0  0  0  0  0  0  0  0  0
  1  2  1  0
  1  7  1  0
  1  8  1  0
  1  9  1  0
  2  3  1  0
  2 10  1  0
  2 11  1  0
  3  4  1  0
  3 12  1  0
  4  5  1  0
  4 13  1  0
  4 14  1  0
  5  6  1  0
  5 15  1  0
  5 16  1  0
  6  7  1  0
  7 17  1  0
  7 18  1  0
M  END
> <intraLJ>
0.655     

> <intraEL>
0.902     

> <intraDihe>
9.506     

> <interLJ>
0.000     

> <interEJ>
0.000     

> <gridLJ>
-2.161    

> <gridEL>
0.000     

> <totalE>
8.902     

> <LGFE>
-2.161  

> <LE>
-0.309  

> <SMILES>
C1CNCCOC1

> <atom.dprop.GFE>
-0.29 -0.3 -0.79 -0.25 -0.13 -0.19 -0.23 0 0 0 0 0 0 0 0 0 0 0

> <atom.prop.CLASS>
PRPC PRPC GEND PRPC PRPC GENA PRPC NCLA NCLA NCLA NCLA NCLA NCLA NCLA NCLA NCLA NCLA NCLA

$$$$
