31_2
     RDKit          3D

 16 16  0  0  0  0  0  0  0  0999 V2000
   16.0160   -3.8725   -7.7426 O   0  0  0  0  0  0  0  0  0  0  0  0
   15.0157   -4.5383   -7.5562 C   0  0  0  0  0  0  0  0  0  0  0  0
   13.6590   -3.8597   -7.2254 C   0  0  0  0  0  0  0  0  0  0  0  0
   12.4447   -4.7416   -7.3793 N   0  0  0  0  0  0  0  0  0  0  0  0
   12.7304   -6.1105   -6.8470 C   0  0  0  0  0  0  0  0  0  0  0  0
   13.9224   -6.7527   -7.5917 C   0  0  0  0  0  0  0  0  0  0  0  0
   15.0917   -5.8712   -7.5509 N   0  0  0  0  0  0  0  0  0  0  0  0
   13.5697   -2.9726   -7.8556 H   0  0  0  0  0  0  0  0  0  0  0  0
   13.7351   -3.5172   -6.1914 H   0  0  0  0  0  0  0  0  0  0  0  0
   12.2244   -4.8101   -8.3662 H   0  0  0  0  0  0  0  0  0  0  0  0
   11.6543   -4.3256   -6.9003 H   0  0  0  0  0  0  0  0  0  0  0  0
   11.8566   -6.7568   -6.9600 H   0  0  0  0  0  0  0  0  0  0  0  0
   12.9797   -6.0559   -5.7827 H   0  0  0  0  0  0  0  0  0  0  0  0
   13.6437   -6.9462   -8.6305 H   0  0  0  0  0  0  0  0  0  0  0  0
   14.1646   -7.7078   -7.1194 H   0  0  0  0  0  0  0  0  0  0  0  0
   16.0166   -6.2545   -7.7163 H   0  0  0  0  0  0  0  0  0  0  0  0
  1  2  2  0
  2  3  1  0
  2  7  1  0
  3  4  1  0
  3  8  1  0
  3  9  1  0
  4  5  1  0
  4 10  1  0
  4 11  1  0
  5  6  1  0
  5 12  1  0
  5 13  1  0
  6  7  1  0
  6 14  1  0
  6 15  1  0
  7 16  1  0
M  CHG  1   4   1
M  END
> <intraLJ>
0.159     

> <intraEL>
4.369     

> <intraDihe>
10.053    

> <interLJ>
0.000     

> <interEJ>
0.000     

> <gridLJ>
-2.437    

> <gridEL>
0.000     

> <totalE>
12.144    

> <LGFE>
-2.437  

> <LE>
-0.348  

> <SMILES>
O=C1C[NH2+]CCN1

> <atom.dprop.GFE>
-0.7 0 0.048 -1.5 0.15 -0.081 -0.3 0 0 0 0 0 0 0 0 0

> <atom.prop.CLASS>
GENA NCLA PRPC MAMN PRPC PRPC GEND NCLA NCLA NCLA NCLA NCLA NCLA NCLA NCLA NCLA

$$$$
