21_1
     RDKit          3D

 17 16  0  0  0  0  0  0  0  0999 V2000
  -22.0822    4.2659    4.2055 C   0  0  0  0  0  0  0  0  0  0  0  0
  -22.2117    4.6628    5.6905 C   0  0  0  0  0  0  0  0  0  0  0  0
  -20.9204    4.2179    6.4168 C   0  0  0  0  0  0  0  0  0  0  0  0
  -23.4315    3.9541    6.2806 C   0  0  0  0  0  0  0  0  0  0  0  0
  -24.4203    4.5486    6.8126 N   0  0  0  0  0  0  0  0  0  0  0  0
  -25.4947    3.8101    7.2494 O   0  0  0  0  0  0  0  0  0  0  0  0
  -23.3970    2.5736    6.2749 N   0  0  0  0  0  0  0  0  0  0  0  0
  -21.2051    4.7578    3.7835 H   0  0  0  0  0  0  0  0  0  0  0  0
  -22.9804    4.5868    3.6772 H   0  0  0  0  0  0  0  0  0  0  0  0
  -21.9776    3.1805    4.1372 H   0  0  0  0  0  0  0  0  0  0  0  0
  -22.3258    5.7342    5.7860 H   0  0  0  0  0  0  0  0  0  0  0  0
  -20.7786    3.1437    6.2823 H   0  0  0  0  0  0  0  0  0  0  0  0
  -21.0286    4.4471    7.4777 H   0  0  0  0  0  0  0  0  0  0  0  0
  -20.0748    4.7654    5.9996 H   0  0  0  0  0  0  0  0  0  0  0  0
  -25.4568    2.9599    6.7623 H   0  0  0  0  0  0  0  0  0  0  0  0
  -23.7841    2.1941    7.1482 H   0  0  0  0  0  0  0  0  0  0  0  0
  -22.4705    2.1958    6.0434 H   0  0  0  0  0  0  0  0  0  0  0  0
  1  2  1  0
  1  8  1  0
  1  9  1  0
  1 10  1  0
  2  3  1  0
  2  4  1  0
  2 11  1  0
  3 12  1  0
  3 13  1  0
  3 14  1  0
  4  5  2  0
  4  7  1  0
  5  6  1  0
  6 15  1  0
  7 16  1  0
  7 17  1  0
M  END
> <intraLJ>
7.547     

> <intraEL>
0.137     

> <intraDihe>
5.065     

> <interLJ>
0.000     

> <interEJ>
0.000     

> <gridLJ>
-3.715    

> <gridEL>
0.000     

> <totalE>
9.033     

> <LGFE>
-3.715  

> <LE>
-0.531  

> <SMILES>
CC(C)C(N)=NO

> <atom.dprop.GFE>
-0.44 -0.36 -0.56 0 -0.87 -0.5 -0.99 0 0 0 0 0 0 0 0 0 0

> <atom.prop.CLASS>
PRPC PRPC PRPC NCLA GENA MEOO GEND NCLA NCLA NCLA NCLA NCLA NCLA NCLA NCLA NCLA NCLA

$$$$
