17_2
     RDKit          3D

 16 16  0  0  0  0  0  0  0  0999 V2000
    3.9142   -0.8465  -36.9899 N   0  0  0  0  0  0  0  0  0  0  0  0
    2.7810   -0.1571  -37.2185 C   0  0  0  0  0  0  0  0  0  0  0  0
    1.9213   -0.2204  -36.3680 O   0  0  0  0  0  0  0  0  0  0  0  0
    2.5187    0.6965  -38.4820 C   0  0  0  0  0  0  0  0  0  0  0  0
    1.9476   -0.0521  -39.5913 N   0  0  0  0  0  0  0  0  0  0  0  0
    3.4650    1.7982  -38.8380 C   0  0  0  0  0  0  0  0  0  0  0  0
    2.0680    2.1145  -38.3324 C   0  0  0  0  0  0  0  0  0  0  0  0
    3.9759   -1.3709  -36.1295 H   0  0  0  0  0  0  0  0  0  0  0  0
    4.6839   -0.8537  -37.6389 H   0  0  0  0  0  0  0  0  0  0  0  0
    1.8653   -1.0528  -39.1984 H   0  0  0  0  0  0  0  0  0  0  0  0
    2.6298   -0.0117  -40.4049 H   0  0  0  0  0  0  0  0  0  0  0  0
    0.9931    0.3571  -39.8126 H   0  0  0  0  0  0  0  0  0  0  0  0
    3.6486    1.9934  -39.8873 H   0  0  0  0  0  0  0  0  0  0  0  0
    4.2810    1.9901  -38.1516 H   0  0  0  0  0  0  0  0  0  0  0  0
    1.9980    2.5090  -37.3255 H   0  0  0  0  0  0  0  0  0  0  0  0
    1.3740    2.5089  -39.0638 H   0  0  0  0  0  0  0  0  0  0  0  0
  1  2  1  0
  1  8  1  0
  1  9  1  0
  2  3  2  0
  2  4  1  0
  4  5  1  0
  4  6  1  0
  4  7  1  0
  5 10  1  0
  5 11  1  0
  5 12  1  0
  6  7  1  0
  6 13  1  0
  6 14  1  0
  7 15  1  0
  7 16  1  0
M  CHG  1   5   1
M  END
> <intraLJ>
-0.421    

> <intraEL>
0.193     

> <intraDihe>
6.251     

> <interLJ>
0.000     

> <interEJ>
0.000     

> <gridLJ>
-2.396    

> <gridEL>
0.000     

> <totalE>
3.627     

> <LGFE>
-2.396  

> <LE>
-0.342  

> <SMILES>
NC(=O)C1([NH3+])CC1

> <atom.dprop.GFE>
-0.77 0 -0.61 -0.43 0.24 -0.39 -0.44 0 0 0 0 0 0 0 0 0

> <atom.prop.CLASS>
GEND NCLA GENA PRPC MAMN PRPC PRPC NCLA NCLA NCLA NCLA NCLA NCLA NCLA NCLA NCLA

$$$$
