71_1
     RDKit          3D

 18 18  0  0  0  0  0  0  0  0999 V2000
  -39.2885    5.5709   18.8249 C   0  0  0  0  0  0  0  0  0  0  0  0
  -39.1251    7.0947   18.7881 C   0  0  0  0  0  0  0  0  0  0  0  0
  -38.6339    7.6737   20.0617 N   0  0  0  0  0  0  0  0  0  0  0  0
  -39.0819    7.0303   21.3264 C   0  0  0  0  0  0  0  0  0  0  0  0
  -40.5629    6.6250   21.3417 C   0  0  0  0  0  0  0  0  0  0  0  0
  -40.7297    5.3017   20.8355 O   0  0  0  0  0  0  0  0  0  0  0  0
  -40.6421    5.1564   19.4236 C   0  0  0  0  0  0  0  0  0  0  0  0
  -38.4689    5.1104   19.3766 H   0  0  0  0  0  0  0  0  0  0  0  0
  -39.2533    5.2052   17.8003 H   0  0  0  0  0  0  0  0  0  0  0  0
  -40.0904    7.5369   18.5348 H   0  0  0  0  0  0  0  0  0  0  0  0
  -38.4233    7.3619   17.9949 H   0  0  0  0  0  0  0  0  0  0  0  0
  -38.8200    8.6684   20.0698 H   0  0  0  0  0  0  0  0  0  0  0  0
  -38.8810    7.7033   22.1610 H   0  0  0  0  0  0  0  0  0  0  0  0
  -38.4968    6.1246   21.4951 H   0  0  0  0  0  0  0  0  0  0  0  0
  -41.1657    7.3447   20.7868 H   0  0  0  0  0  0  0  0  0  0  0  0
  -40.8972    6.6238   22.3789 H   0  0  0  0  0  0  0  0  0  0  0  0
  -40.8027    4.1013   19.1946 H   0  0  0  0  0  0  0  0  0  0  0  0
  -41.4450    5.7209   18.9452 H   0  0  0  0  0  0  0  0  0  0  0  0
  1  2  1  0
  1  7  1  0
  1  8  1  0
  1  9  1  0
  2  3  1  0
  2 10  1  0
  2 11  1  0
  3  4  1  0
  3 12  1  0
  4  5  1  0
  4 13  1  0
  4 14  1  0
  5  6  1  0
  5 15  1  0
  5 16  1  0
  6  7  1  0
  7 17  1  0
  7 18  1  0
M  END
> <intraLJ>
0.655     

> <intraEL>
0.902     

> <intraDihe>
9.506     

> <interLJ>
0.000     

> <interEJ>
0.000     

> <gridLJ>
-4.206    

> <gridEL>
0.000     

> <totalE>
6.858     

> <LGFE>
-4.206  

> <LE>
-0.601  

> <SMILES>
C1CNCCOC1

> <atom.dprop.GFE>
-0.49 -0.53 -0.84 -0.6 -0.5 -0.68 -0.56 0 0 0 0 0 0 0 0 0 0 0

> <atom.prop.CLASS>
PRPC PRPC GEND PRPC PRPC GENA PRPC NCLA NCLA NCLA NCLA NCLA NCLA NCLA NCLA NCLA NCLA NCLA

$$$$
