80
     RDKit          3D

 16 16  0  0  0  0  0  0  0  0999 V2000
   10.2270   17.0149  -11.5200 N   0  0  0  0  0  0  0  0  0  0  0  0
    9.8266   16.5296  -10.3345 C   0  0  0  0  0  0  0  0  0  0  0  0
   10.6373   16.5778   -9.4377 O   0  0  0  0  0  0  0  0  0  0  0  0
    8.4197   15.9704  -10.2062 C   0  0  0  0  0  0  0  0  0  0  0  0
    7.3077   17.0424  -10.3795 C   0  0  0  0  0  0  0  0  0  0  0  0
    6.5607   16.3167   -9.2211 C   0  0  0  0  0  0  0  0  0  0  0  0
    7.9483   15.8039   -8.7345 C   0  0  0  0  0  0  0  0  0  0  0  0
   11.1633   17.3787  -11.5758 H   0  0  0  0  0  0  0  0  0  0  0  0
    9.6137   17.0122  -12.3140 H   0  0  0  0  0  0  0  0  0  0  0  0
    8.2755   15.0860  -10.8155 H   0  0  0  0  0  0  0  0  0  0  0  0
    6.7966   16.9976  -11.3311 H   0  0  0  0  0  0  0  0  0  0  0  0
    7.6213   18.0412  -10.1045 H   0  0  0  0  0  0  0  0  0  0  0  0
    5.9223   15.5164   -9.5748 H   0  0  0  0  0  0  0  0  0  0  0  0
    6.0679   16.9834   -8.5272 H   0  0  0  0  0  0  0  0  0  0  0  0
    8.4218   16.4914   -8.0458 H   0  0  0  0  0  0  0  0  0  0  0  0
    7.9443   14.7803   -8.3856 H   0  0  0  0  0  0  0  0  0  0  0  0
  1  2  1  0
  1  8  1  0
  1  9  1  0
  2  3  2  0
  2  4  1  0
  4  5  1  0
  4  7  1  0
  4 10  1  0
  5  6  1  0
  5 11  1  0
  5 12  1  0
  6  7  1  0
  6 13  1  0
  6 14  1  0
  7 15  1  0
  7 16  1  0
M  END
> <intraLJ>
0.063     

> <intraEL>
-0.840    

> <intraDihe>
21.648    

> <interLJ>
0.000     

> <interEJ>
0.000     

> <gridLJ>
-2.553    

> <gridEL>
0.000     

> <totalE>
18.318    

> <LGFE>
-2.553  

> <LE>
-0.365  

> <SMILES>
NC(=O)C1CCC1

> <atom.dprop.GFE>
-0.87 0 -0.68 -0.27 -0.27 -0.19 -0.28 0 0 0 0 0 0 0 0 0

> <atom.prop.CLASS>
GEND NCLA GENA PRPC PRPC PRPC PRPC NCLA NCLA NCLA NCLA NCLA NCLA NCLA NCLA NCLA

$$$$
