22
     RDKit          3D

 12 12  0  0  0  0  0  0  0  0999 V2000
  -17.1230   -3.7817   26.2045 O   0  0  0  0  0  0  0  0  0  0  0  0
  -18.1598   -4.7579   26.1738 S   0  0  0  0  0  0  0  0  0  0  0  0
  -19.1548   -4.7045   25.1561 O   0  0  0  0  0  0  0  0  0  0  0  0
  -17.5257   -6.3690   26.3612 C   0  0  0  0  0  0  0  0  0  0  0  0
  -18.2280   -6.4746   27.8196 C   0  0  0  0  0  0  0  0  0  0  0  0
  -18.8681   -4.9854   27.7475 C   0  0  0  0  0  0  0  0  0  0  0  0
  -16.4609   -6.5022   26.4953 H   0  0  0  0  0  0  0  0  0  0  0  0
  -17.9196   -7.1643   25.7441 H   0  0  0  0  0  0  0  0  0  0  0  0
  -17.5050   -6.5720   28.6181 H   0  0  0  0  0  0  0  0  0  0  0  0
  -18.9861   -7.2452   27.8550 H   0  0  0  0  0  0  0  0  0  0  0  0
  -19.9432   -5.0806   27.8325 H   0  0  0  0  0  0  0  0  0  0  0  0
  -18.4846   -4.4177   28.5848 H   0  0  0  0  0  0  0  0  0  0  0  0
  1  2  2  0
  2  3  2  0
  2  4  1  0
  2  6  1  0
  4  5  1  0
  4  7  1  0
  4  8  1  0
  5  6  1  0
  5  9  1  0
  5 10  1  0
  6 11  1  0
  6 12  1  0
M  END
> <intraLJ>
-0.830    

> <intraEL>
0.015     

> <intraDihe>
20.344    

> <interLJ>
0.000     

> <interEJ>
0.000     

> <gridLJ>
-2.826    

> <gridEL>
0.000     

> <totalE>
16.703    

> <LGFE>
-2.826  

> <LE>
-0.471  

> <SMILES>
O=S1(=O)CCC1

> <atom.dprop.GFE>
-0.71 0 -1.5 -0.14 -0.25 -0.23 0 0 0 0 0 0

> <atom.prop.CLASS>
GENA NCLA GENA PRPC PRPC PRPC NCLA NCLA NCLA NCLA NCLA NCLA

$$$$
