51_1
     RDKit          3D

 12 12  0  0  0  0  0  0  0  0999 V2000
  -39.2989    7.1733   22.2348 O   0  0  0  0  0  0  0  0  0  0  0  0
  -40.0635    6.8397   21.3469 C   0  0  0  0  0  0  0  0  0  0  0  0
  -41.5257    7.1181   21.2220 C   0  0  0  0  0  0  0  0  0  0  0  0
  -41.9473    6.0293   20.2069 C   0  0  0  0  0  0  0  0  0  0  0  0
  -40.7577    5.7716   19.3664 N   0  0  0  0  0  0  0  0  0  0  0  0
  -39.6651    6.1346   20.2921 N   0  0  0  0  0  0  0  0  0  0  0  0
  -41.6468    8.0966   20.7818 H   0  0  0  0  0  0  0  0  0  0  0  0
  -42.0206    6.9829   22.1727 H   0  0  0  0  0  0  0  0  0  0  0  0
  -42.8012    6.3544   19.6093 H   0  0  0  0  0  0  0  0  0  0  0  0
  -42.2054    5.1146   20.7441 H   0  0  0  0  0  0  0  0  0  0  0  0
  -40.7736    6.4955   18.6237 H   0  0  0  0  0  0  0  0  0  0  0  0
  -38.6875    5.8052   20.2109 H   0  0  0  0  0  0  0  0  0  0  0  0
  1  2  2  0
  2  3  1  0
  2  6  1  0
  3  4  1  0
  3  7  1  0
  3  8  1  0
  4  5  1  0
  4  9  1  0
  4 10  1  0
  5  6  1  0
  5 11  1  0
  6 12  1  0
M  END
> <intraLJ>
-0.445    

> <intraEL>
-0.094    

> <intraDihe>
6.248     

> <interLJ>
0.000     

> <interEJ>
0.000     

> <gridLJ>
-3.142    

> <gridEL>
0.000     

> <totalE>
2.567     

> <LGFE>
-3.142  

> <LE>
-0.524  

> <SMILES>
O=C1CCNN1

> <atom.dprop.GFE>
-0.7 -0.26 -0.38 -0.43 -0.6 -0.77 0 0 0 0 0 0

> <atom.prop.CLASS>
GENA GEHC PRPC PRPC GEND GEND NCLA NCLA NCLA NCLA NCLA NCLA

$$$$
