68_2
     RDKit          3D

 18 17  0  0  1  0  0  0  0  0999 V2000
  -20.7374   -7.2646   28.3554 C   0  0  0  0  0  0  0  0  0  0  0  0
  -20.3005   -8.0133   27.1002 C   0  0  0  0  0  0  0  0  0  0  0  0
  -19.8698   -9.3682   27.4734 N   0  0  0  0  0  0  0  0  0  0  0  0
  -19.1903   -7.2408   26.3701 C   0  0  0  0  0  0  0  0  0  0  0  0
  -19.6796   -5.8915   25.8667 C   0  0  0  0  0  0  0  0  0  0  0  0
  -20.6375   -5.8192   25.1118 O   0  0  0  0  0  0  0  0  0  0  0  0
  -19.0255   -4.8031   26.2146 N   0  0  0  0  0  0  0  0  0  0  0  0
  -21.0949   -6.2696   28.0865 H   0  0  0  0  0  0  0  0  0  0  0  0
  -19.9047   -7.1607   29.0531 H   0  0  0  0  0  0  0  0  0  0  0  0
  -21.5535   -7.7974   28.8453 H   0  0  0  0  0  0  0  0  0  0  0  0
  -21.1571   -8.0808   26.4206 H   0  0  0  0  0  0  0  0  0  0  0  0
  -19.0881   -9.3412   28.1082 H   0  0  0  0  0  0  0  0  0  0  0  0
  -19.5703   -9.8218   26.6048 H   0  0  0  0  0  0  0  0  0  0  0  0
  -20.6330   -9.8921   27.8733 H   0  0  0  0  0  0  0  0  0  0  0  0
  -18.8178   -7.8165   25.5239 H   0  0  0  0  0  0  0  0  0  0  0  0
  -18.3648   -7.0690   27.0615 H   0  0  0  0  0  0  0  0  0  0  0  0
  -19.3679   -3.9257   25.8515 H   0  0  0  0  0  0  0  0  0  0  0  0
  -18.2234   -4.8304   26.8217 H   0  0  0  0  0  0  0  0  0  0  0  0
  1  2  1  0
  1  8  1  0
  1  9  1  0
  1 10  1  0
  2  3  1  0
  2  4  1  0
  2 11  1  0
  3 12  1  0
  3 13  1  0
  3 14  1  0
  4  5  1  0
  4 15  1  0
  4 16  1  0
  5  6  2  0
  5  7  1  0
  7 17  1  0
  7 18  1  0
M  CHG  1   3   1
M  END
> <intraLJ>
1.099     

> <intraEL>
-7.829    

> <intraDihe>
0.105     

> <interLJ>
0.000     

> <interEJ>
0.000     

> <gridLJ>
-3.967    

> <gridEL>
0.000     

> <totalE>
-10.592   

> <LGFE>
-3.967  

> <LE>
-0.567  

> <SMILES>
CC([NH3+])CC(N)=O

> <atom.dprop.GFE>
-0.35 -0.42 -0.32 -0.38 0 -1.5 -1 0 0 0 0 0 0 0 0 0 0 0

> <atom.prop.CLASS>
PRPC PRPC MAMN PRPC NCLA GENA GEND NCLA NCLA NCLA NCLA NCLA NCLA NCLA NCLA NCLA NCLA NCLA

$$$$
