9_1
     RDKit          3D

 12 12  0  0  0  0  0  0  0  0999 V2000
   26.6429    9.5061   -9.2786 O   0  0  0  0  0  0  0  0  0  0  0  0
   25.6979    8.5947   -8.6455 C   0  0  0  0  0  0  0  0  0  0  0  0
   25.3028    7.3869   -9.5424 C   0  0  0  0  0  0  0  0  0  0  0  0
   23.8946    7.6473   -9.1521 N   0  0  0  0  0  0  0  0  0  0  0  0
   24.2178    9.0508   -8.7826 C   0  0  0  0  0  0  0  0  0  0  0  0
   27.5155    9.0878   -9.3510 H   0  0  0  0  0  0  0  0  0  0  0  0
   25.9915    8.3278   -7.6398 H   0  0  0  0  0  0  0  0  0  0  0  0
   25.6832    6.4393   -9.1881 H   0  0  0  0  0  0  0  0  0  0  0  0
   25.4843    7.5668  -10.5938 H   0  0  0  0  0  0  0  0  0  0  0  0
   23.5817    7.0838   -8.3571 H   0  0  0  0  0  0  0  0  0  0  0  0
   24.0645    9.7431   -9.5996 H   0  0  0  0  0  0  0  0  0  0  0  0
   23.7721    9.3680   -7.8497 H   0  0  0  0  0  0  0  0  0  0  0  0
  1  2  1  0
  1  6  1  0
  2  3  1  0
  2  5  1  0
  2  7  1  0
  3  4  1  0
  3  8  1  0
  3  9  1  0
  4  5  1  0
  4 10  1  0
  5 11  1  0
  5 12  1  0
M  END
> <intraLJ>
0.433     

> <intraEL>
3.457     

> <intraDihe>
10.151    

> <interLJ>
0.000     

> <interEJ>
0.000     

> <gridLJ>
-2.406    

> <gridEL>
0.000     

> <totalE>
11.635    

> <LGFE>
-2.406  

> <LE>
-0.481  

> <SMILES>
OC1CNC1

> <atom.dprop.GFE>
-0.31 -0.34 -0.34 -1 -0.37 0 0 0 0 0 0 0

> <atom.prop.CLASS>
MEOO PRPC PRPC GEND PRPC NCLA NCLA NCLA NCLA NCLA NCLA NCLA

$$$$
