66
     RDKit          3D

 11 11  0  0  0  0  0  0  0  0999 V2000
  -15.0544    6.5869  -17.0148 Br  0  0  0  0  0  0  0  0  0  0  0  0
  -15.4763    7.8203  -15.6428 C   0  0  0  0  0  0  0  0  0  0  0  0
  -16.3852    7.4812  -14.6500 C   0  0  0  0  0  0  0  0  0  0  0  0
  -16.6599    8.4211  -13.6659 C   0  0  0  0  0  0  0  0  0  0  0  0
  -16.0269    9.6616  -13.7015 C   0  0  0  0  0  0  0  0  0  0  0  0
  -15.1557    9.9740  -14.6623 N   0  0  0  0  0  0  0  0  0  0  0  0
  -14.8786    9.0806  -15.6166 C   0  0  0  0  0  0  0  0  0  0  0  0
  -16.8545    6.5302  -14.6443 H   0  0  0  0  0  0  0  0  0  0  0  0
  -17.3473    8.2009  -12.8905 H   0  0  0  0  0  0  0  0  0  0  0  0
  -16.2288   10.3884  -12.9561 H   0  0  0  0  0  0  0  0  0  0  0  0
  -14.1828    9.3545  -16.3681 H   0  0  0  0  0  0  0  0  0  0  0  0
  1  2  1  0
  2  3  2  0
  2  7  1  0
  3  4  1  0
  3  8  1  0
  4  5  2  0
  4  9  1  0
  5  6  1  0
  5 10  1  0
  6  7  2  0
  7 11  1  0
M  END
> <intraLJ>
11.953    

> <intraEL>
0.329     

> <intraDihe>
0.000     

> <interLJ>
0.000     

> <interEJ>
0.000     

> <gridLJ>
-3.182    

> <gridEL>
0.000     

> <totalE>
9.100     

> <LGFE>
-3.182  

> <LE>
-0.455  

> <SMILES>
Brc1cccnc1

> <atom.dprop.GFE>
-1.1 -0.24 -0.23 -0.23 -0.25 -0.93 -0.25 0 0 0 0

> <atom.prop.CLASS>
GENA BENC BENC BENC GEHC GENA GEHC NCLA NCLA NCLA NCLA

$$$$
