48_2
     RDKit          3D

 18 17  0  0  1  0  0  0  0  0999 V2000
   -3.4827   -6.6217    9.9473 C   0  0  0  0  0  0  0  0  0  0  0  0
   -3.1637   -6.9492    8.4769 C   0  0  0  0  0  0  0  0  0  0  0  0
   -1.6623   -7.1075    8.1829 C   0  0  0  0  0  0  0  0  0  0  0  0
   -0.9503   -5.8535    8.5466 N   0  0  0  0  0  0  0  0  0  0  0  0
   -1.4158   -7.4841    6.6912 C   0  0  0  0  0  0  0  0  0  0  0  0
   -0.5493   -6.8869    6.0723 O   0  0  0  0  0  0  0  0  0  0  0  0
   -2.0979   -8.4484    6.0874 N   0  0  0  0  0  0  0  0  0  0  0  0
   -4.5667   -6.6306   10.0889 H   0  0  0  0  0  0  0  0  0  0  0  0
   -3.1218   -5.6301   10.2228 H   0  0  0  0  0  0  0  0  0  0  0  0
   -3.0492   -7.3714   10.6125 H   0  0  0  0  0  0  0  0  0  0  0  0
   -3.5822   -6.1703    7.8359 H   0  0  0  0  0  0  0  0  0  0  0  0
   -3.6668   -7.8846    8.2239 H   0  0  0  0  0  0  0  0  0  0  0  0
   -1.2840   -7.9307    8.7924 H   0  0  0  0  0  0  0  0  0  0  0  0
   -1.2122   -5.1517    7.8640 H   0  0  0  0  0  0  0  0  0  0  0  0
    0.0449   -5.9889    8.4351 H   0  0  0  0  0  0  0  0  0  0  0  0
   -1.1854   -5.5569    9.4803 H   0  0  0  0  0  0  0  0  0  0  0  0
   -1.8634   -8.6254    5.1194 H   0  0  0  0  0  0  0  0  0  0  0  0
   -2.8271   -8.9796    6.5369 H   0  0  0  0  0  0  0  0  0  0  0  0
  1  2  1  0
  1  8  1  0
  1  9  1  0
  1 10  1  0
  2  3  1  0
  2 11  1  0
  2 12  1  0
  3  4  1  0
  3  5  1  0
  3 13  1  0
  4 14  1  0
  4 15  1  0
  4 16  1  0
  5  6  2  0
  5  7  1  0
  7 17  1  0
  7 18  1  0
M  CHG  1   4   1
M  END
> <intraLJ>
0.362     

> <intraEL>
1.594     

> <intraDihe>
0.586     

> <interLJ>
0.000     

> <interEJ>
0.000     

> <gridLJ>
-2.196    

> <gridEL>
0.000     

> <totalE>
0.347     

> <LGFE>
-2.196  

> <LE>
-0.314  

> <SMILES>
CCC([NH3+])C(N)=O

> <atom.dprop.GFE>
-0.057 -0.1 -0.041 -1.6 0 -0.06 -0.29 0 0 0 0 0 0 0 0 0 0 0

> <atom.prop.CLASS>
PRPC PRPC PRPC MAMN NCLA GENA GEND NCLA NCLA NCLA NCLA NCLA NCLA NCLA NCLA NCLA NCLA NCLA

$$$$
