39_2
     RDKit          3D

 10 10  0  0  0  0  0  0  0  0999 V2000
    7.7142   11.1041  -36.7459 O   0  0  0  0  0  0  0  0  0  0  0  0
    7.9750   12.2325  -36.2211 C   0  0  0  0  0  0  0  0  0  0  0  0
    7.0844   12.8193  -35.3091 C   0  0  0  0  0  0  0  0  0  0  0  0
    7.3983   14.0424  -34.7608 C   0  0  0  0  0  0  0  0  0  0  0  0
    8.5908   14.6559  -35.1305 C   0  0  0  0  0  0  0  0  0  0  0  0
    9.4272   14.0834  -35.9996 N   0  0  0  0  0  0  0  0  0  0  0  0
    9.1358   12.9019  -36.5366 N   0  0  0  0  0  0  0  0  0  0  0  0
    6.1943   12.3056  -35.0678 H   0  0  0  0  0  0  0  0  0  0  0  0
    6.7448   14.5055  -34.0714 H   0  0  0  0  0  0  0  0  0  0  0  0
    8.8626   15.5945  -34.7278 H   0  0  0  0  0  0  0  0  0  0  0  0
  1  2  1  0
  2  3  2  0
  2  7  1  0
  3  4  1  0
  3  8  1  0
  4  5  2  0
  4  9  1  0
  5  6  1  0
  5 10  1  0
  6  7  2  0
M  CHG  1   1  -1
M  END
> <intraLJ>
15.235    

> <intraEL>
4.019     

> <intraDihe>
0.000     

> <interLJ>
0.000     

> <interEJ>
0.000     

> <gridLJ>
-3.048    

> <gridEL>
0.000     

> <totalE>
16.206    

> <LGFE>
-3.048  

> <LE>
-0.435  

> <SMILES>
[O-]c1cccnn1

> <atom.dprop.GFE>
0 0.38 -0.15 -0.15 -0.14 -1.4 -1.6 0 0 0

> <atom.prop.CLASS>
NCLA ACEC BENC BENC BENC GENA GENA NCLA NCLA NCLA

$$$$
