27_2
     RDKit          3D

 12 12  0  0  0  0  0  0  0  0999 V2000
    9.2708    9.9582    5.2822 N   0  0  0  0  0  0  0  0  0  0  0  0
    9.1628   10.7196    6.3448 C   0  0  0  0  0  0  0  0  0  0  0  0
    9.2350   10.3065    7.5893 N   0  0  0  0  0  0  0  0  0  0  0  0
    9.0753   11.3924    8.4316 C   0  0  0  0  0  0  0  0  0  0  0  0
    8.9037   12.4718    7.6405 C   0  0  0  0  0  0  0  0  0  0  0  0
    8.9633   12.0176    6.3344 N   0  0  0  0  0  0  0  0  0  0  0  0
    9.2007   10.3681    4.3432 H   0  0  0  0  0  0  0  0  0  0  0  0
    9.4268    8.9488    5.3834 H   0  0  0  0  0  0  0  0  0  0  0  0
    9.3883    9.3234    7.8531 H   0  0  0  0  0  0  0  0  0  0  0  0
    9.0955   11.3148    9.4913 H   0  0  0  0  0  0  0  0  0  0  0  0
    8.7492   13.4916    7.8950 H   0  0  0  0  0  0  0  0  0  0  0  0
    8.8716   12.5706    5.4719 H   0  0  0  0  0  0  0  0  0  0  0  0
  1  2  2  0
  1  7  1  0
  1  8  1  0
  2  3  1  0
  2  6  1  0
  3  4  1  0
  3  9  1  0
  4  5  2  0
  4 10  1  0
  5  6  1  0
  5 11  1  0
  6 12  1  0
M  CHG  1   1   1
M  END
> <intraLJ>
-0.384    

> <intraEL>
3.349     

> <intraDihe>
0.000     

> <interLJ>
0.000     

> <interEJ>
0.000     

> <gridLJ>
-3.393    

> <gridEL>
0.000     

> <totalE>
-0.428    

> <LGFE>
-3.393  

> <LE>
-0.566  

> <SMILES>
[NH2+]=c1[nH]cc[nH]1

> <atom.dprop.GFE>
-2.1 -1.6 0 0.09 0.26 0 0 0 0 0 0 0

> <atom.prop.CLASS>
MAMN MAMC NCLA GEHC GEHC NCLA NCLA NCLA NCLA NCLA NCLA NCLA

$$$$
