9_2
     RDKit          3D

 13 13  0  0  0  0  0  0  0  0999 V2000
   -8.5740   -4.5530   18.4735 O   0  0  0  0  0  0  0  0  0  0  0  0
   -9.6449   -3.6960   17.9277 C   0  0  0  0  0  0  0  0  0  0  0  0
  -10.9199   -4.5193   17.5840 C   0  0  0  0  0  0  0  0  0  0  0  0
  -10.2264   -4.8793   16.3182 N   0  0  0  0  0  0  0  0  0  0  0  0
   -9.5440   -3.5590   16.3821 C   0  0  0  0  0  0  0  0  0  0  0  0
   -8.1053   -4.1108   19.2081 H   0  0  0  0  0  0  0  0  0  0  0  0
   -9.7893   -2.7861   18.4939 H   0  0  0  0  0  0  0  0  0  0  0  0
  -11.7892   -3.8959   17.4182 H   0  0  0  0  0  0  0  0  0  0  0  0
  -11.0945   -5.3570   18.2452 H   0  0  0  0  0  0  0  0  0  0  0  0
  -10.8658   -5.0141   15.4788 H   0  0  0  0  0  0  0  0  0  0  0  0
   -9.5295   -5.6716   16.4846 H   0  0  0  0  0  0  0  0  0  0  0  0
   -8.5296   -3.5668   16.0047 H   0  0  0  0  0  0  0  0  0  0  0  0
  -10.1550   -2.7568   15.9910 H   0  0  0  0  0  0  0  0  0  0  0  0
  1  2  1  0
  1  6  1  0
  2  3  1  0
  2  5  1  0
  2  7  1  0
  3  4  1  0
  3  8  1  0
  3  9  1  0
  4  5  1  0
  4 10  1  0
  4 11  1  0
  5 12  1  0
  5 13  1  0
M  CHG  1   4   1
M  END
> <intraLJ>
3.656     

> <intraEL>
5.220     

> <intraDihe>
6.360     

> <interLJ>
0.000     

> <interEJ>
0.000     

> <gridLJ>
-2.757    

> <gridEL>
0.000     

> <totalE>
12.479    

> <LGFE>
-2.757  

> <LE>
-0.551  

> <SMILES>
OC1C[NH2+]C1

> <atom.dprop.GFE>
-0.22 -0.1 0.066 -2.5 -0.014 0 0 0 0 0 0 0 0

> <atom.prop.CLASS>
MEOO PRPC PRPC MAMN PRPC NCLA NCLA NCLA NCLA NCLA NCLA NCLA NCLA

$$$$
