31_1
     RDKit          3D

 15 15  0  0  0  0  0  0  0  0999 V2000
  -26.2939  -17.8622   10.3786 O   0  0  0  0  0  0  0  0  0  0  0  0
  -25.8000  -17.5903    9.2932 C   0  0  0  0  0  0  0  0  0  0  0  0
  -25.2863  -18.7030    8.3405 C   0  0  0  0  0  0  0  0  0  0  0  0
  -25.0152  -18.2777    6.9244 N   0  0  0  0  0  0  0  0  0  0  0  0
  -24.3942  -16.9265    6.9141 C   0  0  0  0  0  0  0  0  0  0  0  0
  -25.3214  -15.8973    7.5848 C   0  0  0  0  0  0  0  0  0  0  0  0
  -25.6315  -16.3122    8.9524 N   0  0  0  0  0  0  0  0  0  0  0  0
  -26.0118  -19.5173    8.3455 H   0  0  0  0  0  0  0  0  0  0  0  0
  -24.3587  -19.0808    8.7694 H   0  0  0  0  0  0  0  0  0  0  0  0
  -25.8910  -18.2515    6.4159 H   0  0  0  0  0  0  0  0  0  0  0  0
  -24.2005  -16.6181    5.8848 H   0  0  0  0  0  0  0  0  0  0  0  0
  -23.4424  -16.9525    7.4493 H   0  0  0  0  0  0  0  0  0  0  0  0
  -26.2436  -15.8165    7.0071 H   0  0  0  0  0  0  0  0  0  0  0  0
  -24.8257  -14.9249    7.5968 H   0  0  0  0  0  0  0  0  0  0  0  0
  -25.9376  -15.6338    9.6300 H   0  0  0  0  0  0  0  0  0  0  0  0
  1  2  2  0
  2  3  1  0
  2  7  1  0
  3  4  1  0
  3  8  1  0
  3  9  1  0
  4  5  1  0
  4 10  1  0
  5  6  1  0
  5 11  1  0
  5 12  1  0
  6  7  1  0
  6 13  1  0
  6 14  1  0
  7 15  1  0
M  END
> <intraLJ>
0.615     

> <intraEL>
3.232     

> <intraDihe>
15.833    

> <interLJ>
0.000     

> <interEJ>
0.000     

> <gridLJ>
-3.016    

> <gridEL>
0.000     

> <totalE>
16.664    

> <LGFE>
-3.016  

> <LE>
-0.431  

> <SMILES>
O=C1CNCCN1

> <atom.dprop.GFE>
-0.88 0 -0.28 -0.47 -0.43 -0.33 -0.63 0 0 0 0 0 0 0 0

> <atom.prop.CLASS>
GENA NCLA PRPC GEND PRPC PRPC GEND NCLA NCLA NCLA NCLA NCLA NCLA NCLA NCLA

$$$$
