52_1
     RDKit          3D

 10 10  0  0  0  0  0  0  0  0999 V2000
  -21.4180   -0.8486   30.3124 C   0  0  0  0  0  0  0  0  0  0  0  0
  -20.5919   -0.3078   29.1685 C   0  0  0  0  0  0  0  0  0  0  0  0
  -19.4212   -0.6638   28.7929 N   0  0  0  0  0  0  0  0  0  0  0  0
  -19.1158    0.1195   27.7228 N   0  0  0  0  0  0  0  0  0  0  0  0
  -20.0969    0.9363   27.4623 N   0  0  0  0  0  0  0  0  0  0  0  0
  -21.0066    0.6584   28.3689 N   0  0  0  0  0  0  0  0  0  0  0  0
  -20.8489   -1.6456   30.7927 H   0  0  0  0  0  0  0  0  0  0  0  0
  -22.3539   -1.2383   29.9120 H   0  0  0  0  0  0  0  0  0  0  0  0
  -21.6054   -0.0391   31.0180 H   0  0  0  0  0  0  0  0  0  0  0  0
  -21.9171    1.1435   28.4293 H   0  0  0  0  0  0  0  0  0  0  0  0
  1  2  1  0
  1  7  1  0
  1  8  1  0
  1  9  1  0
  2  3  2  0
  2  6  1  0
  3  4  1  0
  4  5  2  0
  5  6  1  0
  6 10  1  0
M  END
> <intraLJ>
-0.215    

> <intraEL>
-1.684    

> <intraDihe>
1.140     

> <interLJ>
0.000     

> <interEJ>
0.000     

> <gridLJ>
-3.277    

> <gridEL>
0.000     

> <totalE>
-4.037    

> <LGFE>
-3.277  

> <LE>
-0.546  

> <SMILES>
Cc1nnn[nH]1

> <atom.dprop.GFE>
-0.33 -0.26 -0.68 -0.65 -0.8 -0.56 0 0 0 0

> <atom.prop.CLASS>
PRPC GEHC GENA GENA GENA GEND NCLA NCLA NCLA NCLA

$$$$
