22
     RDKit          3D

 12 12  0  0  0  0  0  0  0  0999 V2000
  -19.0958   -3.9190   23.3732 O   0  0  0  0  0  0  0  0  0  0  0  0
  -18.4315   -3.0962   24.3273 S   0  0  0  0  0  0  0  0  0  0  0  0
  -18.5820   -3.3598   25.7189 O   0  0  0  0  0  0  0  0  0  0  0  0
  -16.7610   -2.8472   23.9029 C   0  0  0  0  0  0  0  0  0  0  0  0
  -17.0726   -1.2850   23.5967 C   0  0  0  0  0  0  0  0  0  0  0  0
  -18.6467   -1.4059   23.9712 C   0  0  0  0  0  0  0  0  0  0  0  0
  -16.3775   -3.2930   22.9953 H   0  0  0  0  0  0  0  0  0  0  0  0
  -16.0092   -2.8905   24.6784 H   0  0  0  0  0  0  0  0  0  0  0  0
  -16.9167   -1.0306   22.5571 H   0  0  0  0  0  0  0  0  0  0  0  0
  -16.5419   -0.6220   24.2664 H   0  0  0  0  0  0  0  0  0  0  0  0
  -18.8497   -0.7184   24.7825 H   0  0  0  0  0  0  0  0  0  0  0  0
  -19.2190   -1.1202   23.0987 H   0  0  0  0  0  0  0  0  0  0  0  0
  1  2  2  0
  2  3  2  0
  2  4  1  0
  2  6  1  0
  4  5  1  0
  4  7  1  0
  4  8  1  0
  5  6  1  0
  5  9  1  0
  5 10  1  0
  6 11  1  0
  6 12  1  0
M  END
> <intraLJ>
-0.830    

> <intraEL>
0.015     

> <intraDihe>
20.344    

> <interLJ>
0.000     

> <interEJ>
0.000     

> <gridLJ>
-3.265    

> <gridEL>
0.000     

> <totalE>
16.264    

> <LGFE>
-3.265  

> <LE>
-0.544  

> <SMILES>
O=S1(=O)CCC1

> <atom.dprop.GFE>
-1.6 0 -0.78 -0.17 -0.38 -0.31 0 0 0 0 0 0

> <atom.prop.CLASS>
GENA NCLA GENA PRPC PRPC PRPC NCLA NCLA NCLA NCLA NCLA NCLA

$$$$
