31_1
     RDKit          3D

 15 15  0  0  0  0  0  0  0  0999 V2000
   20.9426   12.9442   -0.4427 O   0  0  0  0  0  0  0  0  0  0  0  0
   20.7941   12.4023    0.6437 C   0  0  0  0  0  0  0  0  0  0  0  0
   19.9447   13.0615    1.7633 C   0  0  0  0  0  0  0  0  0  0  0  0
   19.5644   12.1656    2.9089 N   0  0  0  0  0  0  0  0  0  0  0  0
   20.7034   11.2723    3.2499 C   0  0  0  0  0  0  0  0  0  0  0  0
   21.0977   10.4083    2.0387 C   0  0  0  0  0  0  0  0  0  0  0  0
   21.4333   11.2601    0.8983 N   0  0  0  0  0  0  0  0  0  0  0  0
   19.0443   13.4760    1.3084 H   0  0  0  0  0  0  0  0  0  0  0  0
   20.5315   13.8912    2.1561 H   0  0  0  0  0  0  0  0  0  0  0  0
   18.7650   11.6058    2.6369 H   0  0  0  0  0  0  0  0  0  0  0  0
   20.4245   10.6206    4.0802 H   0  0  0  0  0  0  0  0  0  0  0  0
   21.5639   11.8707    3.5574 H   0  0  0  0  0  0  0  0  0  0  0  0
   20.2627    9.7562    1.7774 H   0  0  0  0  0  0  0  0  0  0  0  0
   21.9577    9.7915    2.3053 H   0  0  0  0  0  0  0  0  0  0  0  0
   22.0093   10.9046    0.1533 H   0  0  0  0  0  0  0  0  0  0  0  0
  1  2  2  0
  2  3  1  0
  2  7  1  0
  3  4  1  0
  3  8  1  0
  3  9  1  0
  4  5  1  0
  4 10  1  0
  5  6  1  0
  5 11  1  0
  5 12  1  0
  6  7  1  0
  6 13  1  0
  6 14  1  0
  7 15  1  0
M  END
> <intraLJ>
0.615     

> <intraEL>
3.232     

> <intraDihe>
15.833    

> <interLJ>
0.000     

> <interEJ>
0.000     

> <gridLJ>
-2.395    

> <gridEL>
0.000     

> <totalE>
17.285    

> <LGFE>
-2.395  

> <LE>
-0.342  

> <SMILES>
O=C1CNCCN1

> <atom.dprop.GFE>
-0.63 0 -0.28 -0.32 -0.28 -0.29 -0.59 0 0 0 0 0 0 0 0

> <atom.prop.CLASS>
GENA NCLA PRPC GEND PRPC PRPC GEND NCLA NCLA NCLA NCLA NCLA NCLA NCLA NCLA

$$$$
