42_2
     RDKit          3D

 18 17  0  0  1  0  0  0  0  0999 V2000
  -16.3293  -24.6638   13.3149 C   0  0  0  0  0  0  0  0  0  0  0  0
  -16.0920  -23.4248   12.5730 N   0  0  0  0  0  0  0  0  0  0  0  0
  -16.0678  -22.2268   13.1714 C   0  0  0  0  0  0  0  0  0  0  0  0
  -16.2654  -22.0993   14.3762 O   0  0  0  0  0  0  0  0  0  0  0  0
  -15.8083  -20.9351   12.3425 C   0  0  0  0  0  0  0  0  0  0  0  0
  -14.9920  -21.2267   11.0824 C   0  0  0  0  0  0  0  0  0  0  0  0
  -15.0873  -19.9136   13.1438 N   0  0  0  0  0  0  0  0  0  0  0  0
  -16.3409  -25.5186   12.6360 H   0  0  0  0  0  0  0  0  0  0  0  0
  -17.2886  -24.6143   13.8355 H   0  0  0  0  0  0  0  0  0  0  0  0
  -15.5417  -24.8133   14.0573 H   0  0  0  0  0  0  0  0  0  0  0  0
  -15.9246  -23.5136   11.5805 H   0  0  0  0  0  0  0  0  0  0  0  0
  -16.7811  -20.5418   12.0376 H   0  0  0  0  0  0  0  0  0  0  0  0
  -14.0227  -21.6519   11.3494 H   0  0  0  0  0  0  0  0  0  0  0  0
  -14.8446  -20.3141   10.5036 H   0  0  0  0  0  0  0  0  0  0  0  0
  -15.5239  -21.9473   10.4593 H   0  0  0  0  0  0  0  0  0  0  0  0
  -14.2747  -20.3719   13.5408 H   0  0  0  0  0  0  0  0  0  0  0  0
  -15.6582  -19.6504   13.9356 H   0  0  0  0  0  0  0  0  0  0  0  0
  -14.8229  -19.1135   12.5909 H   0  0  0  0  0  0  0  0  0  0  0  0
  1  2  1  0
  1  8  1  0
  1  9  1  0
  1 10  1  0
  2  3  1  0
  2 11  1  0
  3  4  2  0
  3  5  1  0
  5  6  1  0
  5  7  1  0
  5 12  1  0
  6 13  1  0
  6 14  1  0
  6 15  1  0
  7 16  1  0
  7 17  1  0
  7 18  1  0
M  CHG  1   7   1
M  END
> <intraLJ>
0.172     

> <intraEL>
3.035     

> <intraDihe>
0.312     

> <interLJ>
0.000     

> <interEJ>
0.000     

> <gridLJ>
-2.930    

> <gridEL>
0.000     

> <totalE>
0.589     

> <LGFE>
-2.930  

> <LE>
-0.419  

> <SMILES>
CNC(=O)C(C)[NH3+]

> <atom.dprop.GFE>
-0.15 -0.36 0 -0.18 -0.12 -0.13 -2 0 0 0 0 0 0 0 0 0 0 0

> <atom.prop.CLASS>
PRPC GEND NCLA GENA PRPC PRPC MAMN NCLA NCLA NCLA NCLA NCLA NCLA NCLA NCLA NCLA NCLA NCLA

$$$$
