68_1
     RDKit          3D

 17 16  0  0  1  0  0  0  0  0999 V2000
   20.3305   13.6661   -5.4837 C   0  0  0  0  0  0  0  0  0  0  0  0
   20.7004   14.9546   -4.7589 C   0  0  0  0  0  0  0  0  0  0  0  0
   20.0421   16.0736   -5.4468 N   0  0  0  0  0  0  0  0  0  0  0  0
   22.2216   15.1311   -4.7302 C   0  0  0  0  0  0  0  0  0  0  0  0
   22.9044   14.0262   -3.9418 C   0  0  0  0  0  0  0  0  0  0  0  0
   23.5903   13.1846   -4.4945 O   0  0  0  0  0  0  0  0  0  0  0  0
   22.7397   13.9772   -2.6336 N   0  0  0  0  0  0  0  0  0  0  0  0
   20.7636   12.8098   -4.9649 H   0  0  0  0  0  0  0  0  0  0  0  0
   20.6946   13.6917   -6.5112 H   0  0  0  0  0  0  0  0  0  0  0  0
   19.2461   13.5587   -5.4934 H   0  0  0  0  0  0  0  0  0  0  0  0
   20.3336   14.8936   -3.7297 H   0  0  0  0  0  0  0  0  0  0  0  0
   20.3361   16.1251   -6.4107 H   0  0  0  0  0  0  0  0  0  0  0  0
   20.2287   16.9424   -4.9614 H   0  0  0  0  0  0  0  0  0  0  0  0
   22.4769   16.1006   -4.3059 H   0  0  0  0  0  0  0  0  0  0  0  0
   22.6048   15.0893   -5.7487 H   0  0  0  0  0  0  0  0  0  0  0  0
   23.2121   13.2318   -2.1495 H   0  0  0  0  0  0  0  0  0  0  0  0
   22.1820   14.6627   -2.1573 H   0  0  0  0  0  0  0  0  0  0  0  0
  1  2  1  0
  1  8  1  0
  1  9  1  0
  1 10  1  0
  2  3  1  0
  2  4  1  0
  2 11  1  0
  3 12  1  0
  3 13  1  0
  4  5  1  0
  4 14  1  0
  4 15  1  0
  5  6  2  0
  5  7  1  0
  7 16  1  0
  7 17  1  0
M  END
> <intraLJ>
1.200     

> <intraEL>
-12.178   

> <intraDihe>
0.882     

> <interLJ>
0.000     

> <interEJ>
0.000     

> <gridLJ>
-3.132    

> <gridEL>
0.000     

> <totalE>
-13.228   

> <LGFE>
-3.132  

> <LE>
-0.447  

> <SMILES>
CC(N)CC(N)=O

> <atom.dprop.GFE>
-0.55 -0.68 -0.28 -0.51 0 -0.68 -0.43 0 0 0 0 0 0 0 0 0 0

> <atom.prop.CLASS>
PRPC PRPC GEND PRPC NCLA GENA GEND NCLA NCLA NCLA NCLA NCLA NCLA NCLA NCLA NCLA NCLA

$$$$
