71_2
     RDKit          3D

 19 19  0  0  0  0  0  0  0  0999 V2000
    9.1699   16.5987   -1.8813 C   0  0  0  0  0  0  0  0  0  0  0  0
   10.0061   16.2214   -0.6602 C   0  0  0  0  0  0  0  0  0  0  0  0
   10.9279   17.2984   -0.2092 N   0  0  0  0  0  0  0  0  0  0  0  0
   11.6569   18.0244   -1.2939 C   0  0  0  0  0  0  0  0  0  0  0  0
   12.0952   17.1460   -2.4736 C   0  0  0  0  0  0  0  0  0  0  0  0
   11.0323   17.1121   -3.4200 O   0  0  0  0  0  0  0  0  0  0  0  0
    9.9306   16.2495   -3.1700 C   0  0  0  0  0  0  0  0  0  0  0  0
    8.8913   17.6531   -1.8709 H   0  0  0  0  0  0  0  0  0  0  0  0
    8.2551   16.0043   -1.8664 H   0  0  0  0  0  0  0  0  0  0  0  0
   10.5865   15.3352   -0.9352 H   0  0  0  0  0  0  0  0  0  0  0  0
    9.3438   15.9330    0.1620 H   0  0  0  0  0  0  0  0  0  0  0  0
   11.5952   16.8836    0.4291 H   0  0  0  0  0  0  0  0  0  0  0  0
   10.4034   17.9904    0.3144 H   0  0  0  0  0  0  0  0  0  0  0  0
   12.5221   18.5520   -0.8831 H   0  0  0  0  0  0  0  0  0  0  0  0
   10.9949   18.7771   -1.7299 H   0  0  0  0  0  0  0  0  0  0  0  0
   12.3947   16.1473   -2.1530 H   0  0  0  0  0  0  0  0  0  0  0  0
   12.9505   17.6257   -2.9532 H   0  0  0  0  0  0  0  0  0  0  0  0
    9.2397   16.3441   -4.0109 H   0  0  0  0  0  0  0  0  0  0  0  0
   10.2673   15.2111   -3.1427 H   0  0  0  0  0  0  0  0  0  0  0  0
  1  2  1  0
  1  7  1  0
  1  8  1  0
  1  9  1  0
  2  3  1  0
  2 10  1  0
  2 11  1  0
  3  4  1  0
  3 12  1  0
  3 13  1  0
  4  5  1  0
  4 14  1  0
  4 15  1  0
  5  6  1  0
  5 16  1  0
  5 17  1  0
  6  7  1  0
  7 18  1  0
  7 19  1  0
M  CHG  1   3   1
M  END
> <intraLJ>
1.159     

> <intraEL>
4.103     

> <intraDihe>
11.900    

> <interLJ>
0.000     

> <interEJ>
0.000     

> <gridLJ>
-2.160    

> <gridEL>
0.000     

> <totalE>
15.002    

> <LGFE>
-2.160  

> <LE>
-0.309  

> <SMILES>
C1C[NH2+]CCOC1

> <atom.dprop.GFE>
-0.28 -0.33 -0.14 -0.25 -0.27 -0.54 -0.34 0 0 0 0 0 0 0 0 0 0 0 0

> <atom.prop.CLASS>
PRPC PRPC MAMN PRPC PRPC GENA PRPC NCLA NCLA NCLA NCLA NCLA NCLA NCLA NCLA NCLA NCLA NCLA NCLA

$$$$
