28_1
     RDKit          3D

  9  9  0  0  0  0  0  0  0  0999 V2000
   -3.9988    5.1769  -11.1544 C   0  0  0  0  0  0  0  0  0  0  0  0
   -4.3541    4.3260  -12.1438 C   0  0  0  0  0  0  0  0  0  0  0  0
   -5.6114    4.6651  -12.4763 N   0  0  0  0  0  0  0  0  0  0  0  0
   -5.9791    5.7002  -11.6883 C   0  0  0  0  0  0  0  0  0  0  0  0
   -5.0208    6.0339  -10.8757 N   0  0  0  0  0  0  0  0  0  0  0  0
   -3.0631    5.1912  -10.6542 H   0  0  0  0  0  0  0  0  0  0  0  0
   -3.8214    3.5386  -12.6102 H   0  0  0  0  0  0  0  0  0  0  0  0
   -6.2007    4.2233  -13.2010 H   0  0  0  0  0  0  0  0  0  0  0  0
   -6.9414    6.1390  -11.7751 H   0  0  0  0  0  0  0  0  0  0  0  0
  1  2  2  0
  1  5  1  0
  1  6  1  0
  2  3  1  0
  2  7  1  0
  3  4  1  0
  3  8  1  0
  4  5  2  0
  4  9  1  0
M  END
> <intraLJ>
-0.307    

> <intraEL>
-0.294    

> <intraDihe>
0.000     

> <interLJ>
0.000     

> <interEJ>
0.000     

> <gridLJ>
-2.377    

> <gridEL>
0.000     

> <totalE>
-2.978    

> <LGFE>
-2.377  

> <LE>
-0.475  

> <SMILES>
c1c[nH]cn1

> <atom.dprop.GFE>
-0.16 -0.16 -1 -0.2 -0.82 0 0 0 0

> <atom.prop.CLASS>
GEHC GEHC GEND GEHC GENA NCLA NCLA NCLA NCLA

$$$$
