19_1
     RDKit          3D

 11 11  0  0  0  0  0  0  0  0999 V2000
    2.2282    7.9668  -25.5509 N   0  0  0  0  0  0  0  0  0  0  0  0
    2.1381    7.7184  -26.9007 C   0  0  0  0  0  0  0  0  0  0  0  0
    1.0894    7.1318  -27.5961 C   0  0  0  0  0  0  0  0  0  0  0  0
    1.4650    7.1286  -28.8935 C   0  0  0  0  0  0  0  0  0  0  0  0
    2.6938    7.7015  -28.9140 N   0  0  0  0  0  0  0  0  0  0  0  0
    3.1164    8.0794  -27.6632 N   0  0  0  0  0  0  0  0  0  0  0  0
    2.9929    8.6429  -25.4297 H   0  0  0  0  0  0  0  0  0  0  0  0
    1.3358    8.3295  -25.1994 H   0  0  0  0  0  0  0  0  0  0  0  0
    0.1873    6.7598  -27.1863 H   0  0  0  0  0  0  0  0  0  0  0  0
    0.9810    6.7777  -29.7672 H   0  0  0  0  0  0  0  0  0  0  0  0
    3.2629    7.8452  -29.7690 H   0  0  0  0  0  0  0  0  0  0  0  0
  1  2  1  0
  1  7  1  0
  1  8  1  0
  2  3  1  0
  2  6  2  0
  3  4  2  0
  3  9  1  0
  4  5  1  0
  4 10  1  0
  5  6  1  0
  5 11  1  0
M  END
> <intraLJ>
-0.199    

> <intraEL>
-8.716    

> <intraDihe>
2.079     

> <interLJ>
0.000     

> <interEJ>
0.000     

> <gridLJ>
-2.586    

> <gridEL>
0.000     

> <totalE>
-9.421    

> <LGFE>
-2.586  

> <LE>
-0.431  

> <SMILES>
Nc1cc[nH]n1

> <atom.dprop.GFE>
-0.61 -0.17 -0.13 -0.18 -0.16 -1.3 0 0 0 0 0

> <atom.prop.CLASS>
GEND GEHC GEHC GEHC GEND GENA NCLA NCLA NCLA NCLA NCLA

$$$$
