14_1
     RDKit          3D

 18 18  0  0  1  0  0  0  0  0999 V2000
  -19.2273   -0.4359   22.6207 C   0  0  0  0  0  0  0  0  0  0  0  0
  -20.1097    0.7372   22.7041 N   0  0  0  0  0  0  0  0  0  0  0  0
  -19.3883    1.9283   23.1832 C   0  0  0  0  0  0  0  0  0  0  0  0
  -20.1041    3.1123   22.5002 C   0  0  0  0  0  0  0  0  0  0  0  0
  -21.2202    2.4751   21.6774 C   0  0  0  0  0  0  0  0  0  0  0  0
  -22.3523    2.3216   22.5029 O   0  0  0  0  0  0  0  0  0  0  0  0
  -20.6808    1.0732   21.3927 C   0  0  0  0  0  0  0  0  0  0  0  0
  -18.8444   -0.6295   23.6150 H   0  0  0  0  0  0  0  0  0  0  0  0
  -18.4235   -0.2219   21.9282 H   0  0  0  0  0  0  0  0  0  0  0  0
  -19.8228   -1.2716   22.2791 H   0  0  0  0  0  0  0  0  0  0  0  0
  -19.4937    2.0049   24.2588 H   0  0  0  0  0  0  0  0  0  0  0  0
  -18.3560    1.9128   22.8561 H   0  0  0  0  0  0  0  0  0  0  0  0
  -19.4085    3.6272   21.8382 H   0  0  0  0  0  0  0  0  0  0  0  0
  -20.5090    3.8090   23.2344 H   0  0  0  0  0  0  0  0  0  0  0  0
  -21.4626    3.0617   20.7894 H   0  0  0  0  0  0  0  0  0  0  0  0
  -22.0741    1.6372   23.1265 H   0  0  0  0  0  0  0  0  0  0  0  0
  -19.9044    1.1408   20.6422 H   0  0  0  0  0  0  0  0  0  0  0  0
  -21.4899    0.4026   21.1323 H   0  0  0  0  0  0  0  0  0  0  0  0
  1  2  1  0
  1  8  1  0
  1  9  1  0
  1 10  1  0
  2  3  1  0
  2  7  1  0
  3  4  1  0
  3 11  1  0
  3 12  1  0
  4  5  1  0
  4 13  1  0
  4 14  1  0
  5  6  1  0
  5  7  1  0
  5 15  1  0
  6 16  1  0
  7 17  1  0
  7 18  1  0
M  END
> <intraLJ>
3.504     

> <intraEL>
0.090     

> <intraDihe>
11.625    

> <interLJ>
0.000     

> <interEJ>
0.000     

> <gridLJ>
-3.772    

> <gridEL>
0.000     

> <totalE>
11.447    

> <LGFE>
-3.772  

> <LE>
-0.539  

> <SMILES>
CN1CCC(O)C1

> <atom.dprop.GFE>
-0.36 -0.92 -0.27 -0.15 -0.19 -1.6 -0.29 0 0 0 0 0 0 0 0 0 0 0

> <atom.prop.CLASS>
PRPC GEND PRPC PRPC PRPC MEOO PRPC NCLA NCLA NCLA NCLA NCLA NCLA NCLA NCLA NCLA NCLA NCLA

$$$$
