31_1
     RDKit          3D

 15 15  0  0  0  0  0  0  0  0999 V2000
    9.9341    8.6146  -41.5355 O   0  0  0  0  0  0  0  0  0  0  0  0
   10.8903    8.0051  -41.9940 C   0  0  0  0  0  0  0  0  0  0  0  0
   11.9053    7.2838  -41.0672 C   0  0  0  0  0  0  0  0  0  0  0  0
   12.8279    6.3075  -41.7421 N   0  0  0  0  0  0  0  0  0  0  0  0
   13.2573    6.8477  -43.0594 C   0  0  0  0  0  0  0  0  0  0  0  0
   12.0392    7.1044  -43.9645 C   0  0  0  0  0  0  0  0  0  0  0  0
   11.1074    8.0217  -43.3095 N   0  0  0  0  0  0  0  0  0  0  0  0
   11.3467    6.7755  -40.2804 H   0  0  0  0  0  0  0  0  0  0  0  0
   12.5096    8.0598  -40.5984 H   0  0  0  0  0  0  0  0  0  0  0  0
   12.3366    5.4322  -41.8792 H   0  0  0  0  0  0  0  0  0  0  0  0
   13.9250    6.1362  -43.5492 H   0  0  0  0  0  0  0  0  0  0  0  0
   13.8000    7.7847  -42.9160 H   0  0  0  0  0  0  0  0  0  0  0  0
   11.5393    6.1563  -44.1689 H   0  0  0  0  0  0  0  0  0  0  0  0
   12.3801    7.5347  -44.9079 H   0  0  0  0  0  0  0  0  0  0  0  0
   10.4451    8.5463  -43.8566 H   0  0  0  0  0  0  0  0  0  0  0  0
  1  2  2  0
  2  3  1  0
  2  7  1  0
  3  4  1  0
  3  8  1  0
  3  9  1  0
  4  5  1  0
  4 10  1  0
  5  6  1  0
  5 11  1  0
  5 12  1  0
  6  7  1  0
  6 13  1  0
  6 14  1  0
  7 15  1  0
M  END
> <intraLJ>
0.615     

> <intraEL>
3.232     

> <intraDihe>
15.833    

> <interLJ>
0.000     

> <interEJ>
0.000     

> <gridLJ>
-3.260    

> <gridEL>
0.000     

> <totalE>
16.420    

> <LGFE>
-3.260  

> <LE>
-0.466  

> <SMILES>
O=C1CNCCN1

> <atom.dprop.GFE>
-1.2 0 -0.24 -0.6 -0.31 -0.21 -0.73 0 0 0 0 0 0 0 0

> <atom.prop.CLASS>
GENA NCLA PRPC GEND PRPC PRPC GEND NCLA NCLA NCLA NCLA NCLA NCLA NCLA NCLA

$$$$
