1
     RDKit          3D

  9  9  0  0  0  0  0  0  0  0999 V2000
  -10.9044   12.8034    3.8754 Br  0  0  0  0  0  0  0  0  0  0  0  0
  -10.2524   11.0647    3.5743 C   0  0  0  0  0  0  0  0  0  0  0  0
  -11.0001    9.8964    3.4634 C   0  0  0  0  0  0  0  0  0  0  0  0
  -10.2285    8.8608    3.2547 N   0  0  0  0  0  0  0  0  0  0  0  0
   -8.9683    9.3742    3.2306 N   0  0  0  0  0  0  0  0  0  0  0  0
   -8.9583   10.7119    3.4226 C   0  0  0  0  0  0  0  0  0  0  0  0
  -12.0557    9.8332    3.5373 H   0  0  0  0  0  0  0  0  0  0  0  0
   -8.1270    8.7843    3.0804 H   0  0  0  0  0  0  0  0  0  0  0  0
   -8.0675   11.2836    3.4352 H   0  0  0  0  0  0  0  0  0  0  0  0
  1  2  1  0
  2  3  1  0
  2  6  2  0
  3  4  2  0
  3  7  1  0
  4  5  1  0
  5  6  1  0
  5  8  1  0
  6  9  1  0
M  END
> <intraLJ>
-0.882    

> <intraEL>
0.676     

> <intraDihe>
0.000     

> <interLJ>
0.000     

> <interEJ>
0.000     

> <gridLJ>
-2.955    

> <gridEL>
0.000     

> <totalE>
-3.162    

> <LGFE>
-2.955  

> <LE>
-0.493  

> <SMILES>
Brc1cn[nH]c1

> <atom.dprop.GFE>
-0.23 -0.15 -0.24 -1.1 -1.1 -0.19 0 0 0

> <atom.prop.CLASS>
GENA GEHC GEHC GENA GEND GEHC NCLA NCLA NCLA

$$$$
