61_1
     RDKit          3D

 16 16  0  0  0  0  0  0  0  0999 V2000
   16.9932   -3.9740  -21.3900 C   0  0  0  0  0  0  0  0  0  0  0  0
   16.2494   -3.0559  -20.4003 C   0  0  0  0  0  0  0  0  0  0  0  0
   17.1892   -2.2427  -19.5807 N   0  0  0  0  0  0  0  0  0  0  0  0
   18.1543   -3.1403  -18.8907 C   0  0  0  0  0  0  0  0  0  0  0  0
   18.8962   -4.0627  -19.8785 C   0  0  0  0  0  0  0  0  0  0  0  0
   17.9562   -4.8737  -20.6992 N   0  0  0  0  0  0  0  0  0  0  0  0
   17.5290   -3.3406  -22.0996 H   0  0  0  0  0  0  0  0  0  0  0  0
   16.2625   -4.5698  -21.9397 H   0  0  0  0  0  0  0  0  0  0  0  0
   15.6445   -3.6854  -19.7452 H   0  0  0  0  0  0  0  0  0  0  0  0
   15.5833   -2.3970  -20.9580 H   0  0  0  0  0  0  0  0  0  0  0  0
   16.6791   -1.6849  -18.9068 H   0  0  0  0  0  0  0  0  0  0  0  0
   17.6195   -3.7718  -18.1775 H   0  0  0  0  0  0  0  0  0  0  0  0
   18.8861   -2.5430  -18.3437 H   0  0  0  0  0  0  0  0  0  0  0  0
   19.5596   -4.7231  -19.3175 H   0  0  0  0  0  0  0  0  0  0  0  0
   19.5043   -3.4347  -20.5329 H   0  0  0  0  0  0  0  0  0  0  0  0
   18.4658   -5.4308  -21.3725 H   0  0  0  0  0  0  0  0  0  0  0  0
  1  2  1  0
  1  6  1  0
  1  7  1  0
  1  8  1  0
  2  3  1  0
  2  9  1  0
  2 10  1  0
  3  4  1  0
  3 11  1  0
  4  5  1  0
  4 12  1  0
  4 13  1  0
  5  6  1  0
  5 14  1  0
  5 15  1  0
  6 16  1  0
M  END
> <intraLJ>
1.218     

> <intraEL>
5.660     

> <intraDihe>
4.795     

> <interLJ>
0.000     

> <interEJ>
0.000     

> <gridLJ>
-2.126    

> <gridEL>
0.000     

> <totalE>
9.546     

> <LGFE>
-2.126  

> <LE>
-0.354  

> <SMILES>
C1CNCCN1

> <atom.dprop.GFE>
-0.18 -0.037 -0.78 -0.27 -0.24 -0.62 0 0 0 0 0 0 0 0 0 0

> <atom.prop.CLASS>
PRPC PRPC GEND PRPC PRPC GEND NCLA NCLA NCLA NCLA NCLA NCLA NCLA NCLA NCLA NCLA

$$$$
