43
     RDKit          3D

 16 16  0  0  0  0  0  0  0  0999 V2000
  -23.6422    2.3981    5.3297 O   0  0  0  0  0  0  0  0  0  0  0  0
  -23.0357    3.4323    4.8263 B   0  0  0  0  0  0  0  0  0  0  0  0
  -22.6029    4.2960    5.6963 O   0  0  0  0  0  0  0  0  0  0  0  0
  -22.8058    3.6131    3.2386 C   0  0  0  0  0  0  0  0  0  0  0  0
  -23.0245    5.0700    2.7457 C   0  0  0  0  0  0  0  0  0  0  0  0
  -23.7273    4.4463    1.5044 C   0  0  0  0  0  0  0  0  0  0  0  0
  -24.0416    3.2047    2.3893 C   0  0  0  0  0  0  0  0  0  0  0  0
  -23.9617    1.7379    4.6902 H   0  0  0  0  0  0  0  0  0  0  0  0
  -22.1382    5.0709    5.3346 H   0  0  0  0  0  0  0  0  0  0  0  0
  -21.8725    3.1647    2.9199 H   0  0  0  0  0  0  0  0  0  0  0  0
  -22.1116    5.6020    2.5183 H   0  0  0  0  0  0  0  0  0  0  0  0
  -23.7091    5.6300    3.3697 H   0  0  0  0  0  0  0  0  0  0  0  0
  -23.0346    4.2217    0.7031 H   0  0  0  0  0  0  0  0  0  0  0  0
  -24.6046    4.9879    1.1760 H   0  0  0  0  0  0  0  0  0  0  0  0
  -24.9768    3.3059    2.9259 H   0  0  0  0  0  0  0  0  0  0  0  0
  -23.9343    2.2579    1.8793 H   0  0  0  0  0  0  0  0  0  0  0  0
  1  2  1  0
  1  8  1  0
  2  3  1  0
  2  4  1  0
  3  9  1  0
  4  5  1  0
  4  7  1  0
  4 10  1  0
  5  6  1  0
  5 11  1  0
  5 12  1  0
  6  7  1  0
  6 13  1  0
  6 14  1  0
  7 15  1  0
  7 16  1  0
M  END
> <intraLJ>
3.496     

> <intraEL>
0.176     

> <intraDihe>
30.179    

> <interLJ>
0.000     

> <interEJ>
0.000     

> <gridLJ>
-3.809    

> <gridEL>
0.000     

> <totalE>
30.042    

> <LGFE>
-3.809  

> <LE>
-0.544  

> <SMILES>
OB(O)C1CCC1

> <atom.dprop.GFE>
-1.1 0 -0.7 -0.56 -0.53 -0.4 -0.5 0 0 0 0 0 0 0 0 0

> <atom.prop.CLASS>
MEOO NCLA MEOO PRPC PRPC PRPC PRPC NCLA NCLA NCLA NCLA NCLA NCLA NCLA NCLA NCLA

$$$$
