49_1
     RDKit          3D

 18 18  0  0  1  0  0  0  0  0999 V2000
   25.0424    9.1297   -9.2559 O   0  0  0  0  0  0  0  0  0  0  0  0
   24.8712    7.7225   -9.3777 C   0  0  0  0  0  0  0  0  0  0  0  0
   24.0930    7.1621   -8.1776 C   0  0  0  0  0  0  0  0  0  0  0  0
   23.8669    5.6523   -8.2309 C   0  0  0  0  0  0  0  0  0  0  0  0
   22.5948    5.4414   -7.3891 C   0  0  0  0  0  0  0  0  0  0  0  0
   22.1047    6.8541   -7.0713 C   0  0  0  0  0  0  0  0  0  0  0  0
   22.7379    7.7203   -8.0755 N   0  0  0  0  0  0  0  0  0  0  0  0
   25.2935    9.4935  -10.1090 H   0  0  0  0  0  0  0  0  0  0  0  0
   24.3185    7.4890  -10.2883 H   0  0  0  0  0  0  0  0  0  0  0  0
   25.8502    7.2439   -9.4210 H   0  0  0  0  0  0  0  0  0  0  0  0
   24.6496    7.3927   -7.2665 H   0  0  0  0  0  0  0  0  0  0  0  0
   23.6734    5.3438   -9.2589 H   0  0  0  0  0  0  0  0  0  0  0  0
   24.7205    5.1122   -7.8197 H   0  0  0  0  0  0  0  0  0  0  0  0
   22.8110    4.8984   -6.4693 H   0  0  0  0  0  0  0  0  0  0  0  0
   21.8456    4.9118   -7.9785 H   0  0  0  0  0  0  0  0  0  0  0  0
   22.4558    7.1314   -6.0748 H   0  0  0  0  0  0  0  0  0  0  0  0
   21.0156    6.9228   -7.1086 H   0  0  0  0  0  0  0  0  0  0  0  0
   22.7639    8.6994   -7.8144 H   0  0  0  0  0  0  0  0  0  0  0  0
  1  2  1  0
  1  8  1  0
  2  3  1  0
  2  9  1  0
  2 10  1  0
  3  4  1  0
  3  7  1  0
  3 11  1  0
  4  5  1  0
  4 12  1  0
  4 13  1  0
  5  6  1  0
  5 14  1  0
  5 15  1  0
  6  7  1  0
  6 16  1  0
  6 17  1  0
  7 18  1  0
M  END
> <intraLJ>
0.311     

> <intraEL>
1.551     

> <intraDihe>
11.903    

> <interLJ>
0.000     

> <interEJ>
0.000     

> <gridLJ>
-3.511    

> <gridEL>
0.000     

> <totalE>
10.254    

> <LGFE>
-3.511  

> <LE>
-0.502  

> <SMILES>
OCC1CCCN1

> <atom.dprop.GFE>
-0.53 -0.41 -0.38 -0.32 -0.29 -0.31 -1.3 0 0 0 0 0 0 0 0 0 0 0

> <atom.prop.CLASS>
MEOO PRPC PRPC PRPC PRPC PRPC GEND NCLA NCLA NCLA NCLA NCLA NCLA NCLA NCLA NCLA NCLA NCLA

$$$$
