39_2
     RDKit          3D

 10 10  0  0  0  0  0  0  0  0999 V2000
   15.4279    1.8789  -48.6434 O   0  0  0  0  0  0  0  0  0  0  0  0
   15.9271    3.0427  -48.7579 C   0  0  0  0  0  0  0  0  0  0  0  0
   15.2704    4.1584  -48.2164 C   0  0  0  0  0  0  0  0  0  0  0  0
   15.8393    5.4037  -48.3598 C   0  0  0  0  0  0  0  0  0  0  0  0
   17.0488    5.5134  -49.0382 C   0  0  0  0  0  0  0  0  0  0  0  0
   17.6606    4.4413  -49.5471 N   0  0  0  0  0  0  0  0  0  0  0  0
   17.1216    3.2325  -49.4155 N   0  0  0  0  0  0  0  0  0  0  0  0
   14.3544    4.0121  -47.7126 H   0  0  0  0  0  0  0  0  0  0  0  0
   15.3651    6.2598  -47.9611 H   0  0  0  0  0  0  0  0  0  0  0  0
   17.5130    6.4544  -49.1653 H   0  0  0  0  0  0  0  0  0  0  0  0
  1  2  1  0
  2  3  2  0
  2  7  1  0
  3  4  1  0
  3  8  1  0
  4  5  2  0
  4  9  1  0
  5  6  1  0
  5 10  1  0
  6  7  2  0
M  CHG  1   1  -1
M  END
> <intraLJ>
15.235    

> <intraEL>
4.019     

> <intraDihe>
0.000     

> <interLJ>
0.000     

> <interEJ>
0.000     

> <gridLJ>
-2.363    

> <gridEL>
0.000     

> <totalE>
16.891    

> <LGFE>
-2.363  

> <LE>
-0.338  

> <SMILES>
[O-]c1cccnn1

> <atom.dprop.GFE>
0 -1.2 -0.065 -0.062 -0.16 -0.45 -0.47 0 0 0

> <atom.prop.CLASS>
NCLA ACEC BENC BENC BENC GENA GENA NCLA NCLA NCLA

$$$$
