36_2
     RDKit          3D

 14 14  0  0  0  0  0  0  0  0999 V2000
  -21.6911    6.5163  -12.7564 N   0  0  0  0  0  0  0  0  0  0  0  0
  -22.5992    6.5362  -11.6102 C   0  0  0  0  0  0  0  0  0  0  0  0
  -21.6614    6.3636  -10.4296 C   0  0  0  0  0  0  0  0  0  0  0  0
  -21.2400    7.3182   -9.5835 C   0  0  0  0  0  0  0  0  0  0  0  0
  -20.4269    6.7589   -8.7071 O   0  0  0  0  0  0  0  0  0  0  0  0
  -20.3660    5.4625   -9.0451 C   0  0  0  0  0  0  0  0  0  0  0  0
  -21.0908    5.1712  -10.0729 N   0  0  0  0  0  0  0  0  0  0  0  0
  -22.0766    7.0276  -13.5345 H   0  0  0  0  0  0  0  0  0  0  0  0
  -21.4750    5.5565  -12.9782 H   0  0  0  0  0  0  0  0  0  0  0  0
  -20.8376    6.9381  -12.3905 H   0  0  0  0  0  0  0  0  0  0  0  0
  -23.3007    5.7113  -11.6473 H   0  0  0  0  0  0  0  0  0  0  0  0
  -23.0753    7.5070  -11.5212 H   0  0  0  0  0  0  0  0  0  0  0  0
  -21.4539    8.3575   -9.5352 H   0  0  0  0  0  0  0  0  0  0  0  0
  -19.7574    4.8067   -8.4711 H   0  0  0  0  0  0  0  0  0  0  0  0
  1  2  1  0
  1  8  1  0
  1  9  1  0
  1 10  1  0
  2  3  1  0
  2 11  1  0
  2 12  1  0
  3  4  2  0
  3  7  1  0
  4  5  1  0
  4 13  1  0
  5  6  1  0
  6  7  2  0
  6 14  1  0
M  CHG  1   1   1
M  END
> <intraLJ>
0.669     

> <intraEL>
5.059     

> <intraDihe>
12.051    

> <interLJ>
0.000     

> <interEJ>
0.000     

> <gridLJ>
-3.917    

> <gridEL>
0.000     

> <totalE>
13.862    

> <LGFE>
-3.917  

> <LE>
-0.560  

> <SMILES>
[NH3+]Cc1cocn1

> <atom.dprop.GFE>
-1.1 -0.25 -0.23 -0.13 -0.82 -0.29 -1.1 0 0 0 0 0 0 0

> <atom.prop.CLASS>
MAMN PRPC GEHC GEHC GENA GEHC GENA NCLA NCLA NCLA NCLA NCLA NCLA NCLA

$$$$
