14_2
     RDKit          3D

 19 19  0  0  1  0  0  0  0  0999 V2000
  -32.5736    9.4379   13.3703 C   0  0  0  0  0  0  0  0  0  0  0  0
  -33.7123    9.2260   14.2854 N   0  0  0  0  0  0  0  0  0  0  0  0
  -34.3069   10.5074   14.6863 C   0  0  0  0  0  0  0  0  0  0  0  0
  -35.7390   10.1231   15.1070 C   0  0  0  0  0  0  0  0  0  0  0  0
  -35.9007    8.6688   14.6555 C   0  0  0  0  0  0  0  0  0  0  0  0
  -35.5702    7.8286   15.7515 O   0  0  0  0  0  0  0  0  0  0  0  0
  -34.7965    8.5119   13.6036 C   0  0  0  0  0  0  0  0  0  0  0  0
  -31.8067    9.9869   13.9041 H   0  0  0  0  0  0  0  0  0  0  0  0
  -32.9179    9.9999   12.5094 H   0  0  0  0  0  0  0  0  0  0  0  0
  -32.1992    8.4663   13.0669 H   0  0  0  0  0  0  0  0  0  0  0  0
  -33.4722    8.6857   15.1176 H   0  0  0  0  0  0  0  0  0  0  0  0
  -33.7761   10.9379   15.5289 H   0  0  0  0  0  0  0  0  0  0  0  0
  -34.3654   11.1769   13.8350 H   0  0  0  0  0  0  0  0  0  0  0  0
  -36.4571   10.7662   14.5955 H   0  0  0  0  0  0  0  0  0  0  0  0
  -35.8622   10.2172   16.1861 H   0  0  0  0  0  0  0  0  0  0  0  0
  -36.9062    8.4574   14.2826 H   0  0  0  0  0  0  0  0  0  0  0  0
  -36.3328    7.7288   16.3343 H   0  0  0  0  0  0  0  0  0  0  0  0
  -35.0885    9.0253   12.6951 H   0  0  0  0  0  0  0  0  0  0  0  0
  -34.5638    7.4613   13.4708 H   0  0  0  0  0  0  0  0  0  0  0  0
  1  2  1  0
  1  8  1  0
  1  9  1  0
  1 10  1  0
  2  3  1  0
  2  7  1  0
  2 11  1  0
  3  4  1  0
  3 12  1  0
  3 13  1  0
  4  5  1  0
  4 14  1  0
  4 15  1  0
  5  6  1  0
  5  7  1  0
  5 16  1  0
  6 17  1  0
  7 18  1  0
  7 19  1  0
M  CHG  1   2   1
M  END
> <intraLJ>
3.793     

> <intraEL>
3.185     

> <intraDihe>
12.263    

> <interLJ>
0.000     

> <interEJ>
0.000     

> <gridLJ>
-2.588    

> <gridEL>
0.000     

> <totalE>
16.653    

> <LGFE>
-2.588  

> <LE>
-0.370  

> <SMILES>
C[NH+]1CCC(O)C1

> <atom.dprop.GFE>
-0.31 -0.39 -0.3 -0.39 -0.37 -0.5 -0.33 0 0 0 0 0 0 0 0 0 0 0 0

> <atom.prop.CLASS>
PRPC MAMN PRPC PRPC PRPC MEOO PRPC NCLA NCLA NCLA NCLA NCLA NCLA NCLA NCLA NCLA NCLA NCLA NCLA

$$$$
