9_1
     RDKit          3D

 12 12  0  0  0  0  0  0  0  0999 V2000
   -6.9611   11.1515   -5.6406 O   0  0  0  0  0  0  0  0  0  0  0  0
   -6.9954   11.1319   -7.0976 C   0  0  0  0  0  0  0  0  0  0  0  0
   -8.0588   10.1585   -7.6816 C   0  0  0  0  0  0  0  0  0  0  0  0
   -7.0099    9.6868   -8.6200 N   0  0  0  0  0  0  0  0  0  0  0  0
   -5.9326   10.1861   -7.7250 C   0  0  0  0  0  0  0  0  0  0  0  0
   -7.7581   11.5814   -5.2919 H   0  0  0  0  0  0  0  0  0  0  0  0
   -7.0162   12.1252   -7.5240 H   0  0  0  0  0  0  0  0  0  0  0  0
   -8.8842   10.6578   -8.1689 H   0  0  0  0  0  0  0  0  0  0  0  0
   -8.3620    9.3953   -6.9772 H   0  0  0  0  0  0  0  0  0  0  0  0
   -7.0318   10.1610   -9.5268 H   0  0  0  0  0  0  0  0  0  0  0  0
   -5.5807    9.4314   -7.0346 H   0  0  0  0  0  0  0  0  0  0  0  0
   -5.1409   10.7065   -8.2467 H   0  0  0  0  0  0  0  0  0  0  0  0
  1  2  1  0
  1  6  1  0
  2  3  1  0
  2  5  1  0
  2  7  1  0
  3  4  1  0
  3  8  1  0
  3  9  1  0
  4  5  1  0
  4 10  1  0
  5 11  1  0
  5 12  1  0
M  END
> <intraLJ>
0.433     

> <intraEL>
3.457     

> <intraDihe>
10.151    

> <interLJ>
0.000     

> <interEJ>
0.000     

> <gridLJ>
-3.538    

> <gridEL>
0.000     

> <totalE>
10.503    

> <LGFE>
-3.538  

> <LE>
-0.708  

> <SMILES>
OC1CNC1

> <atom.dprop.GFE>
-1.1 -0.41 -0.44 -1.1 -0.49 0 0 0 0 0 0 0

> <atom.prop.CLASS>
MEOO PRPC PRPC GEND PRPC NCLA NCLA NCLA NCLA NCLA NCLA NCLA

$$$$
