40_2
     RDKit          3D

 10 10  0  0  0  0  0  0  0  0999 V2000
  -14.2440  -10.3263  -14.6420 O   0  0  0  0  0  0  0  0  0  0  0  0
  -15.0110  -10.6713  -15.6023 C   0  0  0  0  0  0  0  0  0  0  0  0
  -16.3506  -10.2582  -15.6457 C   0  0  0  0  0  0  0  0  0  0  0  0
  -17.1408  -10.6531  -16.6987 C   0  0  0  0  0  0  0  0  0  0  0  0
  -16.6761  -11.4320  -17.7015 N   0  0  0  0  0  0  0  0  0  0  0  0
  -15.3961  -11.8350  -17.6729 N   0  0  0  0  0  0  0  0  0  0  0  0
  -14.5870  -11.4794  -16.6737 C   0  0  0  0  0  0  0  0  0  0  0  0
  -16.7234   -9.6498  -14.8663 H   0  0  0  0  0  0  0  0  0  0  0  0
  -18.1525  -10.3491  -16.7448 H   0  0  0  0  0  0  0  0  0  0  0  0
  -13.5859  -11.8166  -16.6860 H   0  0  0  0  0  0  0  0  0  0  0  0
  1  2  1  0
  2  3  2  0
  2  7  1  0
  3  4  1  0
  3  8  1  0
  4  5  2  0
  4  9  1  0
  5  6  1  0
  6  7  2  0
  7 10  1  0
M  CHG  1   1  -1
M  END
> <intraLJ>
15.492    

> <intraEL>
-6.927    

> <intraDihe>
0.000     

> <interLJ>
0.000     

> <interEJ>
0.000     

> <gridLJ>
-2.007    

> <gridEL>
0.000     

> <totalE>
6.558     

> <LGFE>
-2.007  

> <LE>
-0.287  

> <SMILES>
[O-]c1ccnnc1

> <atom.dprop.GFE>
0 -1.6 -0.045 -0.058 -0.17 -0.16 -0.027 0 0 0

> <atom.prop.CLASS>
NCLA ACEC BENC BENC GENA GENA BENC NCLA NCLA NCLA

$$$$
