9_1
     RDKit          3D

 12 12  0  0  0  0  0  0  0  0999 V2000
   21.7475   16.0978   -5.6275 O   0  0  0  0  0  0  0  0  0  0  0  0
   20.5917   15.7499   -4.8104 C   0  0  0  0  0  0  0  0  0  0  0  0
   20.3695   14.2170   -4.6682 C   0  0  0  0  0  0  0  0  0  0  0  0
   18.9342   14.4695   -4.9502 N   0  0  0  0  0  0  0  0  0  0  0  0
   19.2524   15.7685   -5.5999 C   0  0  0  0  0  0  0  0  0  0  0  0
   22.5682   15.8751   -5.1603 H   0  0  0  0  0  0  0  0  0  0  0  0
   20.5669   16.2939   -3.8765 H   0  0  0  0  0  0  0  0  0  0  0  0
   20.5565   13.8410   -3.6723 H   0  0  0  0  0  0  0  0  0  0  0  0
   20.8542   13.6475   -5.4501 H   0  0  0  0  0  0  0  0  0  0  0  0
   18.3652   14.5709   -4.1055 H   0  0  0  0  0  0  0  0  0  0  0  0
   19.3924   15.6770   -6.6687 H   0  0  0  0  0  0  0  0  0  0  0  0
   18.5887   16.5724   -5.3119 H   0  0  0  0  0  0  0  0  0  0  0  0
  1  2  1  0
  1  6  1  0
  2  3  1  0
  2  5  1  0
  2  7  1  0
  3  4  1  0
  3  8  1  0
  3  9  1  0
  4  5  1  0
  4 10  1  0
  5 11  1  0
  5 12  1  0
M  END
> <intraLJ>
0.433     

> <intraEL>
3.457     

> <intraDihe>
10.151    

> <interLJ>
0.000     

> <interEJ>
0.000     

> <gridLJ>
-2.864    

> <gridEL>
0.000     

> <totalE>
11.177    

> <LGFE>
-2.864  

> <LE>
-0.573  

> <SMILES>
OC1CNC1

> <atom.dprop.GFE>
-0.64 -0.62 -0.68 -0.29 -0.62 0 0 0 0 0 0 0

> <atom.prop.CLASS>
MEOO PRPC PRPC GEND PRPC NCLA NCLA NCLA NCLA NCLA NCLA NCLA

$$$$
