51_2
     RDKit          3D

 12 12  0  0  0  0  0  0  0  0999 V2000
   11.9198   17.0848   -3.6041 O   0  0  0  0  0  0  0  0  0  0  0  0
   11.1878   16.7912   -2.5244 C   0  0  0  0  0  0  0  0  0  0  0  0
   11.6404   17.0178   -1.1212 C   0  0  0  0  0  0  0  0  0  0  0  0
   10.5452   16.2059   -0.4055 C   0  0  0  0  0  0  0  0  0  0  0  0
    9.5021   16.0947   -1.4360 N   0  0  0  0  0  0  0  0  0  0  0  0
   10.0537   16.2858   -2.6879 N   0  0  0  0  0  0  0  0  0  0  0  0
   11.3114   16.8200   -4.3194 H   0  0  0  0  0  0  0  0  0  0  0  0
   11.5454   18.0700   -0.8950 H   0  0  0  0  0  0  0  0  0  0  0  0
   12.6184   16.5911   -0.9602 H   0  0  0  0  0  0  0  0  0  0  0  0
   10.1779   16.7241    0.4825 H   0  0  0  0  0  0  0  0  0  0  0  0
   10.9189   15.2125   -0.1505 H   0  0  0  0  0  0  0  0  0  0  0  0
    8.8222   15.3152   -1.3535 H   0  0  0  0  0  0  0  0  0  0  0  0
  1  2  1  0
  1  7  1  0
  2  3  1  0
  2  6  2  0
  3  4  1  0
  3  8  1  0
  3  9  1  0
  4  5  1  0
  4 10  1  0
  4 11  1  0
  5  6  1  0
  5 12  1  0
M  END
> <intraLJ>
-0.691    

> <intraEL>
-4.206    

> <intraDihe>
21.287    

> <interLJ>
0.000     

> <interEJ>
0.000     

> <gridLJ>
-2.035    

> <gridEL>
0.000     

> <totalE>
14.355    

> <LGFE>
-2.035  

> <LE>
-0.339  

> <SMILES>
OC1=NNCC1

> <atom.dprop.GFE>
-0.44 -0.12 -0.32 -0.21 -0.46 -0.5 0 0 0 0 0 0

> <atom.prop.CLASS>
MEOO GEHC PRPC PRPC GEND GENA NCLA NCLA NCLA NCLA NCLA NCLA

$$$$
