30_1
     RDKit          3D

 15 15  0  0  1  0  0  0  0  0999 V2000
  -32.5264   -5.1330   24.9642 N   0  0  0  0  0  0  0  0  0  0  0  0
  -33.0886   -5.2608   26.3355 C   0  0  0  0  0  0  0  0  0  0  0  0
  -34.4148   -4.4944   26.4397 C   0  0  0  0  0  0  0  0  0  0  0  0
  -34.4495   -4.0527   27.9118 C   0  0  0  0  0  0  0  0  0  0  0  0
  -33.0520   -3.9367   28.2740 N   0  0  0  0  0  0  0  0  0  0  0  0
  -32.2621   -4.6203   27.4661 C   0  0  0  0  0  0  0  0  0  0  0  0
  -31.0484   -4.7165   27.6031 O   0  0  0  0  0  0  0  0  0  0  0  0
  -32.8711   -5.8734   24.3702 H   0  0  0  0  0  0  0  0  0  0  0  0
  -31.5159   -5.1929   25.0350 H   0  0  0  0  0  0  0  0  0  0  0  0
  -33.2533   -6.3019   26.6190 H   0  0  0  0  0  0  0  0  0  0  0  0
  -34.3723   -3.6102   25.8028 H   0  0  0  0  0  0  0  0  0  0  0  0
  -35.2671   -5.1191   26.1771 H   0  0  0  0  0  0  0  0  0  0  0  0
  -34.9324   -4.8170   28.5253 H   0  0  0  0  0  0  0  0  0  0  0  0
  -34.9728   -3.0989   28.0156 H   0  0  0  0  0  0  0  0  0  0  0  0
  -32.6944   -3.4266   29.0666 H   0  0  0  0  0  0  0  0  0  0  0  0
  1  2  1  0
  1  8  1  0
  1  9  1  0
  2  3  1  0
  2  6  1  0
  2 10  1  0
  3  4  1  0
  3 11  1  0
  3 12  1  0
  4  5  1  0
  4 13  1  0
  4 14  1  0
  5  6  1  0
  5 15  1  0
  6  7  2  0
M  END
> <intraLJ>
0.264     

> <intraEL>
2.285     

> <intraDihe>
8.139     

> <interLJ>
0.000     

> <interEJ>
0.000     

> <gridLJ>
-2.416    

> <gridEL>
0.000     

> <totalE>
8.273     

> <LGFE>
-2.416  

> <LE>
-0.345  

> <SMILES>
NC1CCNC1=O

> <atom.dprop.GFE>
-0.49 -0.12 -0.18 -0.18 -0.41 -0.041 -1 0 0 0 0 0 0 0 0

> <atom.prop.CLASS>
GEND PRPC PRPC PRPC GEND GEHC GENA NCLA NCLA NCLA NCLA NCLA NCLA NCLA NCLA

$$$$
