24_2
     RDKit          3D

 17 17  0  0  0  0  0  0  0  0999 V2000
   -7.2498    3.2594  -15.0142 N   0  0  0  0  0  0  0  0  0  0  0  0
   -6.7308    3.9508  -14.0576 C   0  0  0  0  0  0  0  0  0  0  0  0
   -5.4858    3.7360  -13.7300 N   0  0  0  0  0  0  0  0  0  0  0  0
   -4.8117    4.4246  -12.6214 C   0  0  0  0  0  0  0  0  0  0  0  0
   -5.4803    5.7973  -12.4970 C   0  0  0  0  0  0  0  0  0  0  0  0
   -6.9939    5.6454  -12.3183 C   0  0  0  0  0  0  0  0  0  0  0  0
   -7.4656    4.8463  -13.4569 N   0  0  0  0  0  0  0  0  0  0  0  0
   -8.2149    3.4350  -15.3077 H   0  0  0  0  0  0  0  0  0  0  0  0
   -6.6801    2.5756  -15.5199 H   0  0  0  0  0  0  0  0  0  0  0  0
   -4.9926    2.9811  -14.2148 H   0  0  0  0  0  0  0  0  0  0  0  0
   -3.7471    4.5531  -12.8351 H   0  0  0  0  0  0  0  0  0  0  0  0
   -4.9280    3.8632  -11.6908 H   0  0  0  0  0  0  0  0  0  0  0  0
   -5.2725    6.3915  -13.3893 H   0  0  0  0  0  0  0  0  0  0  0  0
   -5.0665    6.3219  -11.6352 H   0  0  0  0  0  0  0  0  0  0  0  0
   -7.4640    6.6334  -12.3156 H   0  0  0  0  0  0  0  0  0  0  0  0
   -7.2127    5.1392  -11.3736 H   0  0  0  0  0  0  0  0  0  0  0  0
   -8.4481    4.9211  -13.7389 H   0  0  0  0  0  0  0  0  0  0  0  0
  1  2  2  0
  1  8  1  0
  1  9  1  0
  2  3  1  0
  2  7  1  0
  3  4  1  0
  3 10  1  0
  4  5  1  0
  4 11  1  0
  4 12  1  0
  5  6  1  0
  5 13  1  0
  5 14  1  0
  6  7  1  0
  6 15  1  0
  6 16  1  0
  7 17  1  0
M  CHG  1   1   1
M  END
> <intraLJ>
2.615     

> <intraEL>
-18.178   

> <intraDihe>
0.248     

> <interLJ>
0.000     

> <interEJ>
0.000     

> <gridLJ>
-2.915    

> <gridEL>
0.000     

> <totalE>
-18.229   

> <LGFE>
-2.915  

> <LE>
-0.416  

> <SMILES>
[NH2+]=C1NCCCN1

> <atom.dprop.GFE>
0 -2.4 0 -0.21 -0.23 -0.05 0 0 0 0 0 0 0 0 0 0 0

> <atom.prop.CLASS>
NCLA MAMC NCLA PRPC PRPC PRPC NCLA NCLA NCLA NCLA NCLA NCLA NCLA NCLA NCLA NCLA NCLA

$$$$
