46_2
     RDKit          3D

 15 15  0  0  0  0  0  0  0  0999 V2000
  -20.3016   -7.2287   -4.9003 C   0  0  0  0  0  0  0  0  0  0  0  0
  -21.0341   -8.4080   -4.2333 C   0  0  0  0  0  0  0  0  0  0  0  0
  -20.1754   -9.6232   -4.5722 C   0  0  0  0  0  0  0  0  0  0  0  0
  -18.8208   -9.0773   -4.7667 N   0  0  0  0  0  0  0  0  0  0  0  0
  -19.0928   -7.8741   -5.5734 C   0  0  0  0  0  0  0  0  0  0  0  0
  -19.9723   -6.5137   -4.1443 H   0  0  0  0  0  0  0  0  0  0  0  0
  -20.9316   -6.7283   -5.6391 H   0  0  0  0  0  0  0  0  0  0  0  0
  -22.0448   -8.5294   -4.6289 H   0  0  0  0  0  0  0  0  0  0  0  0
  -21.0716   -8.2632   -3.1512 H   0  0  0  0  0  0  0  0  0  0  0  0
  -20.5437  -10.0520   -5.5084 H   0  0  0  0  0  0  0  0  0  0  0  0
  -20.2178  -10.3824   -3.7855 H   0  0  0  0  0  0  0  0  0  0  0  0
  -18.1830   -9.7270   -5.2113 H   0  0  0  0  0  0  0  0  0  0  0  0
  -18.4555   -8.7880   -3.8689 H   0  0  0  0  0  0  0  0  0  0  0  0
  -18.2399   -7.1912   -5.6179 H   0  0  0  0  0  0  0  0  0  0  0  0
  -19.3798   -8.1619   -6.5890 H   0  0  0  0  0  0  0  0  0  0  0  0
  1  2  1  0
  1  5  1  0
  1  6  1  0
  1  7  1  0
  2  3  1  0
  2  8  1  0
  2  9  1  0
  3  4  1  0
  3 10  1  0
  3 11  1  0
  4  5  1  0
  4 12  1  0
  4 13  1  0
  5 14  1  0
  5 15  1  0
M  CHG  1   4   1
M  END
> <intraLJ>
-0.364    

> <intraEL>
9.610     

> <intraDihe>
5.719     

> <interLJ>
0.000     

> <interEJ>
0.000     

> <gridLJ>
-2.142    

> <gridEL>
0.000     

> <totalE>
12.824    

> <LGFE>
-2.142  

> <LE>
-0.428  

> <SMILES>
C1CC[NH2+]C1

> <atom.dprop.GFE>
-0.16 -0.16 -0.072 -1.7 -0.079 0 0 0 0 0 0 0 0 0 0

> <atom.prop.CLASS>
PRPC PRPC PRPC MAMN PRPC NCLA NCLA NCLA NCLA NCLA NCLA NCLA NCLA NCLA NCLA

$$$$
