15_2
     RDKit          3D

 14 14  0  0  0  0  0  0  0  0999 V2000
   21.6999   -0.0627  -21.6223 N   0  0  0  0  0  0  0  0  0  0  0  0
   22.7768    0.1414  -20.8530 C   0  0  0  0  0  0  0  0  0  0  0  0
   23.8629    0.9640  -21.2158 C   0  0  0  0  0  0  0  0  0  0  0  0
   24.9188    1.1042  -20.3480 C   0  0  0  0  0  0  0  0  0  0  0  0
   24.8918    0.4224  -19.1149 C   0  0  0  0  0  0  0  0  0  0  0  0
   23.8155   -0.3734  -18.7887 C   0  0  0  0  0  0  0  0  0  0  0  0
   22.7770   -0.4948  -19.6732 N   0  0  0  0  0  0  0  0  0  0  0  0
   20.9015   -0.6644  -21.3620 H   0  0  0  0  0  0  0  0  0  0  0  0
   21.6414    0.4022  -22.5478 H   0  0  0  0  0  0  0  0  0  0  0  0
   23.8495    1.4614  -22.1522 H   0  0  0  0  0  0  0  0  0  0  0  0
   25.7508    1.7184  -20.5983 H   0  0  0  0  0  0  0  0  0  0  0  0
   25.7058    0.5283  -18.4419 H   0  0  0  0  0  0  0  0  0  0  0  0
   23.7155   -0.9205  -17.8831 H   0  0  0  0  0  0  0  0  0  0  0  0
   21.9639   -1.0852  -19.4475 H   0  0  0  0  0  0  0  0  0  0  0  0
  1  2  1  0
  1  8  1  0
  1  9  1  0
  2  3  2  0
  2  7  1  0
  3  4  1  0
  3 10  1  0
  4  5  2  0
  4 11  1  0
  5  6  1  0
  5 12  1  0
  6  7  2  0
  6 13  1  0
  7 14  1  0
M  CHG  1   7   1
M  END
> <intraLJ>
8.433     

> <intraEL>
1.228     

> <intraDihe>
0.000     

> <interLJ>
0.000     

> <interEJ>
0.000     

> <gridLJ>
-4.168    

> <gridEL>
0.000     

> <totalE>
5.493     

> <LGFE>
-4.168  

> <LE>
-0.595  

> <SMILES>
Nc1cccc[nH+]1

> <atom.dprop.GFE>
-0.72 -0.22 -0.23 -0.17 -0.17 -0.16 -2.5 0 0 0 0 0 0 0

> <atom.prop.CLASS>
GEND BENC BENC BENC BENC BENC MAMN NCLA NCLA NCLA NCLA NCLA NCLA NCLA

$$$$
