48_1
     RDKit          3D

 17 16  0  0  1  0  0  0  0  0999 V2000
   18.8874   -2.4499   -4.6057 C   0  0  0  0  0  0  0  0  0  0  0  0
   19.7336   -3.6373   -5.0923 C   0  0  0  0  0  0  0  0  0  0  0  0
   19.4575   -4.0311   -6.5544 C   0  0  0  0  0  0  0  0  0  0  0  0
   19.8663   -2.9115   -7.4499 N   0  0  0  0  0  0  0  0  0  0  0  0
   17.9798   -4.4764   -6.7764 C   0  0  0  0  0  0  0  0  0  0  0  0
   17.2907   -4.0578   -7.6954 O   0  0  0  0  0  0  0  0  0  0  0  0
   17.4624   -5.3876   -5.9652 N   0  0  0  0  0  0  0  0  0  0  0  0
   19.1520   -2.2091   -3.5761 H   0  0  0  0  0  0  0  0  0  0  0  0
   17.8267   -2.7020   -4.6470 H   0  0  0  0  0  0  0  0  0  0  0  0
   19.0709   -1.5789   -5.2352 H   0  0  0  0  0  0  0  0  0  0  0  0
   19.5484   -4.5006   -4.4505 H   0  0  0  0  0  0  0  0  0  0  0  0
   20.7882   -3.3726   -4.9985 H   0  0  0  0  0  0  0  0  0  0  0  0
   20.0664   -4.9118   -6.7672 H   0  0  0  0  0  0  0  0  0  0  0  0
   19.4714   -2.0539   -7.0855 H   0  0  0  0  0  0  0  0  0  0  0  0
   19.4964   -3.0595   -8.3781 H   0  0  0  0  0  0  0  0  0  0  0  0
   16.5145   -5.6690   -6.1540 H   0  0  0  0  0  0  0  0  0  0  0  0
   17.9992   -5.7666   -5.2058 H   0  0  0  0  0  0  0  0  0  0  0  0
  1  2  1  0
  1  8  1  0
  1  9  1  0
  1 10  1  0
  2  3  1  0
  2 11  1  0
  2 12  1  0
  3  4  1  0
  3  5  1  0
  3 13  1  0
  4 14  1  0
  4 15  1  0
  5  6  2  0
  5  7  1  0
  7 16  1  0
  7 17  1  0
M  END
> <intraLJ>
0.836     

> <intraEL>
5.165     

> <intraDihe>
0.809     

> <interLJ>
0.000     

> <interEJ>
0.000     

> <gridLJ>
-2.514    

> <gridEL>
0.000     

> <totalE>
4.297     

> <LGFE>
-2.514  

> <LE>
-0.359  

> <SMILES>
CCC(N)C(N)=O

> <atom.dprop.GFE>
-0.16 -0.17 -0.12 -0.55 0 -1.1 -0.43 0 0 0 0 0 0 0 0 0 0

> <atom.prop.CLASS>
PRPC PRPC PRPC GEND NCLA GENA GEND NCLA NCLA NCLA NCLA NCLA NCLA NCLA NCLA NCLA NCLA

$$$$
