74_1
     RDKit          3D

 12 12  0  0  0  0  0  0  0  0999 V2000
   11.8859    7.8671  -41.9175 O   0  0  0  0  0  0  0  0  0  0  0  0
   10.9867    8.7876  -41.6086 C   0  0  0  0  0  0  0  0  0  0  0  0
   11.1731   10.1317  -41.9110 C   0  0  0  0  0  0  0  0  0  0  0  0
   10.1809   11.0297  -41.5516 C   0  0  0  0  0  0  0  0  0  0  0  0
    9.0554   10.5252  -40.9067 C   0  0  0  0  0  0  0  0  0  0  0  0
    8.9599    9.1578  -40.6467 C   0  0  0  0  0  0  0  0  0  0  0  0
    9.9203    8.2984  -40.9966 N   0  0  0  0  0  0  0  0  0  0  0  0
   11.4548    7.0613  -41.5746 H   0  0  0  0  0  0  0  0  0  0  0  0
   12.0543   10.4475  -42.4041 H   0  0  0  0  0  0  0  0  0  0  0  0
   10.2760   12.0652  -41.7596 H   0  0  0  0  0  0  0  0  0  0  0  0
    8.2726   11.1755  -40.6138 H   0  0  0  0  0  0  0  0  0  0  0  0
    8.1024    8.7705  -40.1561 H   0  0  0  0  0  0  0  0  0  0  0  0
  1  2  1  0
  1  8  1  0
  2  3  2  0
  2  7  1  0
  3  4  1  0
  3  9  1  0
  4  5  2  0
  4 10  1  0
  5  6  1  0
  5 11  1  0
  6  7  2  0
  6 12  1  0
M  END
> <intraLJ>
13.107    

> <intraEL>
-5.244    

> <intraDihe>
0.000     

> <interLJ>
0.000     

> <interEJ>
0.000     

> <gridLJ>
-1.993    

> <gridEL>
0.000     

> <totalE>
5.870     

> <LGFE>
-1.993  

> <LE>
-0.285  

> <SMILES>
Oc1ccccn1

> <atom.dprop.GFE>
-0.65 -0.068 -0.099 -0.11 -0.052 0.17 -1.2 0 0 0 0 0

> <atom.prop.CLASS>
MEOO GEHC BENC BENC BENC GEHC GENA NCLA NCLA NCLA NCLA NCLA

$$$$
