61_2
     RDKit          3D

 17 17  0  0  0  0  0  0  0  0999 V2000
  -21.3988   13.3008   29.7753 C   0  0  0  0  0  0  0  0  0  0  0  0
  -21.1409   12.3639   28.5754 C   0  0  0  0  0  0  0  0  0  0  0  0
  -21.0568   13.1177   27.2875 N   0  0  0  0  0  0  0  0  0  0  0  0
  -22.3024   13.9200   27.0816 C   0  0  0  0  0  0  0  0  0  0  0  0
  -22.5741   14.8742   28.2645 C   0  0  0  0  0  0  0  0  0  0  0  0
  -22.6062   14.1413   29.5575 N   0  0  0  0  0  0  0  0  0  0  0  0
  -20.5249   13.9403   29.9211 H   0  0  0  0  0  0  0  0  0  0  0  0
  -21.5305   12.6975   30.6769 H   0  0  0  0  0  0  0  0  0  0  0  0
  -21.9706   11.6527   28.5310 H   0  0  0  0  0  0  0  0  0  0  0  0
  -20.2201   11.8021   28.7550 H   0  0  0  0  0  0  0  0  0  0  0  0
  -20.9250   12.4756   26.5166 H   0  0  0  0  0  0  0  0  0  0  0  0
  -20.2686   13.7486   27.3315 H   0  0  0  0  0  0  0  0  0  0  0  0
  -23.1606   13.2489   26.9978 H   0  0  0  0  0  0  0  0  0  0  0  0
  -22.2364   14.5058   26.1615 H   0  0  0  0  0  0  0  0  0  0  0  0
  -23.5325   15.3749   28.1042 H   0  0  0  0  0  0  0  0  0  0  0  0
  -21.7927   15.6373   28.2925 H   0  0  0  0  0  0  0  0  0  0  0  0
  -22.7740   14.7693   30.3434 H   0  0  0  0  0  0  0  0  0  0  0  0
  1  2  1  0
  1  6  1  0
  1  7  1  0
  1  8  1  0
  2  3  1  0
  2  9  1  0
  2 10  1  0
  3  4  1  0
  3 11  1  0
  3 12  1  0
  4  5  1  0
  4 13  1  0
  4 14  1  0
  5  6  1  0
  5 15  1  0
  5 16  1  0
  6 17  1  0
M  CHG  1   3   1
M  END
> <intraLJ>
1.222     

> <intraEL>
7.977     

> <intraDihe>
5.373     

> <interLJ>
0.000     

> <interEJ>
0.000     

> <gridLJ>
-2.233    

> <gridEL>
0.000     

> <totalE>
12.339    

> <LGFE>
-2.233  

> <LE>
-0.372  

> <SMILES>
C1C[NH2+]CCN1

> <atom.dprop.GFE>
-0.19 -0.16 -1.2 -0.23 -0.21 -0.24 0 0 0 0 0 0 0 0 0 0 0

> <atom.prop.CLASS>
PRPC PRPC MAMN PRPC PRPC GEND NCLA NCLA NCLA NCLA NCLA NCLA NCLA NCLA NCLA NCLA NCLA

$$$$
