57_1
     RDKit          3D

 15 15  0  0  0  0  0  0  0  0999 V2000
  -40.2477    0.1382   29.2222 O   0  0  0  0  0  0  0  0  0  0  0  0
  -40.6407    0.0652   27.9817 C   0  0  0  0  0  0  0  0  0  0  0  0
  -41.0529    1.1028   27.5398 O   0  0  0  0  0  0  0  0  0  0  0  0
  -40.5457   -1.2567   27.2408 C   0  0  0  0  0  0  0  0  0  0  0  0
  -39.0836   -1.7364   27.0152 C   0  0  0  0  0  0  0  0  0  0  0  0
  -39.5542   -2.1953   25.6030 C   0  0  0  0  0  0  0  0  0  0  0  0
  -40.6722   -1.1141   25.6979 C   0  0  0  0  0  0  0  0  0  0  0  0
  -40.4196    1.0617   29.4137 H   0  0  0  0  0  0  0  0  0  0  0  0
  -41.1956   -2.0110   27.6683 H   0  0  0  0  0  0  0  0  0  0  0  0
  -38.7797   -2.5450   27.6654 H   0  0  0  0  0  0  0  0  0  0  0  0
  -38.3658   -0.9275   26.9679 H   0  0  0  0  0  0  0  0  0  0  0  0
  -39.9490   -3.2032   25.6033 H   0  0  0  0  0  0  0  0  0  0  0  0
  -38.8322   -2.0160   24.8181 H   0  0  0  0  0  0  0  0  0  0  0  0
  -40.3477   -0.1519   25.3225 H   0  0  0  0  0  0  0  0  0  0  0  0
  -41.6278   -1.4314   25.3022 H   0  0  0  0  0  0  0  0  0  0  0  0
  1  2  1  0
  1  8  1  0
  2  3  2  0
  2  4  1  0
  4  5  1  0
  4  7  1  0
  4  9  1  0
  5  6  1  0
  5 10  1  0
  5 11  1  0
  6  7  1  0
  6 12  1  0
  6 13  1  0
  7 14  1  0
  7 15  1  0
M  END
> <intraLJ>
-0.766    

> <intraEL>
-1.743    

> <intraDihe>
17.645    

> <interLJ>
0.000     

> <interEJ>
0.000     

> <gridLJ>
-2.714    

> <gridEL>
0.000     

> <totalE>
12.422    

> <LGFE>
-2.714  

> <LE>
-0.388  

> <SMILES>
O=C(O)C1CCC1

> <atom.dprop.GFE>
-0.34 0 -0.61 -0.41 -0.49 -0.47 -0.4 0 0 0 0 0 0 0 0

> <atom.prop.CLASS>
MEOO NCLA GENA PRPC PRPC PRPC PRPC NCLA NCLA NCLA NCLA NCLA NCLA NCLA NCLA

$$$$
