48_2
     RDKit          3D

 18 17  0  0  1  0  0  0  0  0999 V2000
   11.0204   -7.6419   -9.6727 C   0  0  0  0  0  0  0  0  0  0  0  0
   11.6736   -6.2521   -9.7867 C   0  0  0  0  0  0  0  0  0  0  0  0
   10.6664   -5.0930   -9.8751 C   0  0  0  0  0  0  0  0  0  0  0  0
    9.8490   -5.0499   -8.6334 N   0  0  0  0  0  0  0  0  0  0  0  0
    9.7655   -5.2231  -11.1396 C   0  0  0  0  0  0  0  0  0  0  0  0
    8.5543   -5.1489  -11.0055 O   0  0  0  0  0  0  0  0  0  0  0  0
   10.2762   -5.3834  -12.3534 N   0  0  0  0  0  0  0  0  0  0  0  0
   11.7996   -8.3913   -9.5098 H   0  0  0  0  0  0  0  0  0  0  0  0
   10.4903   -7.9101  -10.5872 H   0  0  0  0  0  0  0  0  0  0  0  0
   10.3349   -7.6777   -8.8234 H   0  0  0  0  0  0  0  0  0  0  0  0
   12.3303   -6.2338  -10.6590 H   0  0  0  0  0  0  0  0  0  0  0  0
   12.2990   -6.1010   -8.9046 H   0  0  0  0  0  0  0  0  0  0  0  0
   11.2299   -4.1628   -9.9723 H   0  0  0  0  0  0  0  0  0  0  0  0
    9.2295   -5.8517   -8.6548 H   0  0  0  0  0  0  0  0  0  0  0  0
    9.2489   -4.2371   -8.6554 H   0  0  0  0  0  0  0  0  0  0  0  0
   10.4312   -5.0631   -7.8114 H   0  0  0  0  0  0  0  0  0  0  0  0
    9.6126   -5.4519  -13.1139 H   0  0  0  0  0  0  0  0  0  0  0  0
   11.2648   -5.4547  -12.5363 H   0  0  0  0  0  0  0  0  0  0  0  0
  1  2  1  0
  1  8  1  0
  1  9  1  0
  1 10  1  0
  2  3  1  0
  2 11  1  0
  2 12  1  0
  3  4  1  0
  3  5  1  0
  3 13  1  0
  4 14  1  0
  4 15  1  0
  4 16  1  0
  5  6  2  0
  5  7  1  0
  7 17  1  0
  7 18  1  0
M  CHG  1   4   1
M  END
> <intraLJ>
0.349     

> <intraEL>
1.542     

> <intraDihe>
0.669     

> <interLJ>
0.000     

> <interEJ>
0.000     

> <gridLJ>
-2.936    

> <gridEL>
0.000     

> <totalE>
-0.377    

> <LGFE>
-2.936  

> <LE>
-0.419  

> <SMILES>
CCC([NH3+])C(N)=O

> <atom.dprop.GFE>
-0.037 -0.059 -0.13 -1.8 0 -0.42 -0.53 0 0 0 0 0 0 0 0 0 0 0

> <atom.prop.CLASS>
PRPC PRPC PRPC MAMN NCLA GENA GEND NCLA NCLA NCLA NCLA NCLA NCLA NCLA NCLA NCLA NCLA NCLA

$$$$
