17_1
     RDKit          3D

 15 15  0  0  0  0  0  0  0  0999 V2000
   22.2365   -1.2266  -12.7560 N   0  0  0  0  0  0  0  0  0  0  0  0
   21.9942   -2.3448  -12.0582 C   0  0  0  0  0  0  0  0  0  0  0  0
   22.9366   -2.8522  -11.4895 O   0  0  0  0  0  0  0  0  0  0  0  0
   20.5412   -2.8848  -12.0517 C   0  0  0  0  0  0  0  0  0  0  0  0
   19.5174   -2.0614  -12.7038 N   0  0  0  0  0  0  0  0  0  0  0  0
   20.0726   -3.6782  -10.8766 C   0  0  0  0  0  0  0  0  0  0  0  0
   20.3613   -4.3591  -12.2026 C   0  0  0  0  0  0  0  0  0  0  0  0
   23.1752   -0.8709  -12.7753 H   0  0  0  0  0  0  0  0  0  0  0  0
   21.4684   -0.7861  -13.2334 H   0  0  0  0  0  0  0  0  0  0  0  0
   19.3831   -1.2160  -12.1417 H   0  0  0  0  0  0  0  0  0  0  0  0
   18.6318   -2.5735  -12.6777 H   0  0  0  0  0  0  0  0  0  0  0  0
   19.0333   -3.5776  -10.5959 H   0  0  0  0  0  0  0  0  0  0  0  0
   20.7924   -3.8440  -10.0850 H   0  0  0  0  0  0  0  0  0  0  0  0
   21.2647   -4.9520  -12.2505 H   0  0  0  0  0  0  0  0  0  0  0  0
   19.5110   -4.6896  -12.7828 H   0  0  0  0  0  0  0  0  0  0  0  0
  1  2  1  0
  1  8  1  0
  1  9  1  0
  2  3  2  0
  2  4  1  0
  4  5  1  0
  4  6  1  0
  4  7  1  0
  5 10  1  0
  5 11  1  0
  6  7  1  0
  6 12  1  0
  6 13  1  0
  7 14  1  0
  7 15  1  0
M  END
> <intraLJ>
3.003     

> <intraEL>
0.469     

> <intraDihe>
8.480     

> <interLJ>
0.000     

> <interEJ>
0.000     

> <gridLJ>
-2.607    

> <gridEL>
0.000     

> <totalE>
9.345     

> <LGFE>
-2.607  

> <LE>
-0.372  

> <SMILES>
NC(=O)C1(N)CC1

> <atom.dprop.GFE>
-0.34 0 -0.42 -0.36 -0.84 -0.35 -0.3 0 0 0 0 0 0 0 0

> <atom.prop.CLASS>
GEND NCLA GENA PRPC GEND PRPC PRPC NCLA NCLA NCLA NCLA NCLA NCLA NCLA NCLA

$$$$
