41
     RDKit          3D

  8  8  0  0  0  0  0  0  0  0999 V2000
   22.7005    2.3456  -30.1124 C   0  0  0  0  0  0  0  0  0  0  0  0
   22.7105    1.3462  -31.0125 C   0  0  0  0  0  0  0  0  0  0  0  0
   22.7959    1.9561  -32.1939 N   0  0  0  0  0  0  0  0  0  0  0  0
   22.8382    3.2853  -32.0330 N   0  0  0  0  0  0  0  0  0  0  0  0
   22.7791    3.5328  -30.7444 N   0  0  0  0  0  0  0  0  0  0  0  0
   22.6410    2.2401  -29.0589 H   0  0  0  0  0  0  0  0  0  0  0  0
   22.6652    0.2947  -30.9023 H   0  0  0  0  0  0  0  0  0  0  0  0
   22.8274    1.4993  -33.1239 H   0  0  0  0  0  0  0  0  0  0  0  0
  1  2  2  0
  1  5  1  0
  1  6  1  0
  2  3  1  0
  2  7  1  0
  3  4  1  0
  3  8  1  0
  4  5  2  0
M  END
> <intraLJ>
-0.290    

> <intraEL>
-0.628    

> <intraDihe>
0.000     

> <interLJ>
0.000     

> <interEJ>
0.000     

> <gridLJ>
-3.858    

> <gridEL>
0.000     

> <totalE>
-4.776    

> <LGFE>
-3.858  

> <LE>
-0.772  

> <SMILES>
c1c[nH]nn1

> <atom.dprop.GFE>
-0.2 -0.16 -0.87 -1.1 -1.5 0 0 0

> <atom.prop.CLASS>
GEHC GEHC GEND GENA GENA NCLA NCLA NCLA

$$$$
