16
     RDKit          3D

 10 10  0  0  0  0  0  0  0  0999 V2000
  -22.9568    3.0856   22.7004 N   0  0  0  0  0  0  0  0  0  0  0  0
  -23.8809    3.6490   22.3575 C   0  0  0  0  0  0  0  0  0  0  0  0
  -25.0884    4.3851   21.9091 C   0  0  0  0  0  0  0  0  0  0  0  0
  -26.0311    3.6190   21.0269 C   0  0  0  0  0  0  0  0  0  0  0  0
  -25.1536    4.7019   20.4438 C   0  0  0  0  0  0  0  0  0  0  0  0
  -25.4926    5.0940   22.6188 H   0  0  0  0  0  0  0  0  0  0  0  0
  -27.0836    3.8495   21.1279 H   0  0  0  0  0  0  0  0  0  0  0  0
  -25.7621    2.5963   20.7895 H   0  0  0  0  0  0  0  0  0  0  0  0
  -24.3218    4.3760   19.8312 H   0  0  0  0  0  0  0  0  0  0  0  0
  -25.6426    5.6284   20.1715 H   0  0  0  0  0  0  0  0  0  0  0  0
  1  2  3  0
  2  3  1  0
  3  4  1  0
  3  5  1  0
  3  6  1  0
  4  5  1  0
  4  7  1  0
  4  8  1  0
  5  9  1  0
  5 10  1  0
M  END
> <intraLJ>
-0.168    

> <intraEL>
1.810     

> <intraDihe>
1.484     

> <interLJ>
0.000     

> <interEJ>
0.000     

> <gridLJ>
-2.760    

> <gridEL>
0.000     

> <totalE>
0.366     

> <LGFE>
-2.760  

> <LE>
-0.552  

> <SMILES>
N#CC1CC1

> <atom.dprop.GFE>
-1.9 0 -0.29 -0.3 -0.28 0 0 0 0 0

> <atom.prop.CLASS>
GENA NCLA PRPC PRPC PRPC NCLA NCLA NCLA NCLA NCLA

$$$$
