9_1
     RDKit          3D

 12 12  0  0  0  0  0  0  0  0999 V2000
  -24.0665    2.8843    5.2938 O   0  0  0  0  0  0  0  0  0  0  0  0
  -24.9634    3.2249    6.3911 C   0  0  0  0  0  0  0  0  0  0  0  0
  -26.4561    2.9007    6.0976 C   0  0  0  0  0  0  0  0  0  0  0  0
  -26.7814    4.2451    6.6361 N   0  0  0  0  0  0  0  0  0  0  0  0
  -25.3933    4.7191    6.3927 C   0  0  0  0  0  0  0  0  0  0  0  0
  -23.9913    1.9207    5.2084 H   0  0  0  0  0  0  0  0  0  0  0  0
  -24.6060    2.8622    7.3449 H   0  0  0  0  0  0  0  0  0  0  0  0
  -26.8496    2.0883    6.6920 H   0  0  0  0  0  0  0  0  0  0  0  0
  -26.6672    2.8127    5.0402 H   0  0  0  0  0  0  0  0  0  0  0  0
  -27.0354    4.2360    7.6276 H   0  0  0  0  0  0  0  0  0  0  0  0
  -25.2773    5.1916    5.4266 H   0  0  0  0  0  0  0  0  0  0  0  0
  -24.9792    5.2901    7.2126 H   0  0  0  0  0  0  0  0  0  0  0  0
  1  2  1  0
  1  6  1  0
  2  3  1  0
  2  5  1  0
  2  7  1  0
  3  4  1  0
  3  8  1  0
  3  9  1  0
  4  5  1  0
  4 10  1  0
  5 11  1  0
  5 12  1  0
M  END
> <intraLJ>
0.433     

> <intraEL>
3.457     

> <intraDihe>
10.151    

> <interLJ>
0.000     

> <interEJ>
0.000     

> <gridLJ>
-2.483    

> <gridEL>
0.000     

> <totalE>
11.558    

> <LGFE>
-2.483  

> <LE>
-0.497  

> <SMILES>
OC1CNC1

> <atom.dprop.GFE>
-1.1 -0.21 -0.36 -0.56 -0.25 0 0 0 0 0 0 0

> <atom.prop.CLASS>
MEOO PRPC PRPC GEND PRPC NCLA NCLA NCLA NCLA NCLA NCLA NCLA

$$$$
