21_2
     RDKit          3D

 17 16  0  0  0  0  0  0  0  0999 V2000
    4.2137   -2.7467    6.7064 C   0  0  0  0  0  0  0  0  0  0  0  0
    3.9448   -2.8667    8.2231 C   0  0  0  0  0  0  0  0  0  0  0  0
    5.2408   -3.3760    8.8872 C   0  0  0  0  0  0  0  0  0  0  0  0
    2.8488   -3.8945    8.4512 C   0  0  0  0  0  0  0  0  0  0  0  0
    1.7899   -3.5589    9.1167 N   0  0  0  0  0  0  0  0  0  0  0  0
    0.7587   -4.3236    9.3931 O   0  0  0  0  0  0  0  0  0  0  0  0
    2.8889   -5.1507    7.9975 N   0  0  0  0  0  0  0  0  0  0  0  0
    4.9624   -1.9672    6.5551 H   0  0  0  0  0  0  0  0  0  0  0  0
    3.2832   -2.4604    6.2150 H   0  0  0  0  0  0  0  0  0  0  0  0
    4.5807   -3.6920    6.3054 H   0  0  0  0  0  0  0  0  0  0  0  0
    3.6599   -1.9068    8.6334 H   0  0  0  0  0  0  0  0  0  0  0  0
    5.5496   -4.3216    8.4388 H   0  0  0  0  0  0  0  0  0  0  0  0
    5.0504   -3.5075    9.9531 H   0  0  0  0  0  0  0  0  0  0  0  0
    6.0184   -2.6248    8.7442 H   0  0  0  0  0  0  0  0  0  0  0  0
    1.8466   -2.5727    9.4272 H   0  0  0  0  0  0  0  0  0  0  0  0
    2.0816   -5.7566    8.2061 H   0  0  0  0  0  0  0  0  0  0  0  0
    3.6878   -5.4881    7.4478 H   0  0  0  0  0  0  0  0  0  0  0  0
  1  2  1  0
  1  8  1  0
  1  9  1  0
  1 10  1  0
  2  3  1  0
  2  4  1  0
  2 11  1  0
  3 12  1  0
  3 13  1  0
  3 14  1  0
  4  5  2  0
  4  7  1  0
  5  6  1  0
  5 15  1  0
  7 16  1  0
  7 17  1  0
M  CHG  2   5   1   6  -1
M  END
> <intraLJ>
4.543     

> <intraEL>
-0.793    

> <intraDihe>
0.560     

> <interLJ>
0.000     

> <interEJ>
0.000     

> <gridLJ>
-2.577    

> <gridEL>
0.000     

> <totalE>
1.733     

> <LGFE>
-2.577  

> <LE>
-0.368  

> <SMILES>
CC(C)C(N)=[NH+][O-]

> <atom.dprop.GFE>
-0.2 -0.28 -0.17 -1.9 0 0 0 0 0 0 0 0 0 0 0 0 0

> <atom.prop.CLASS>
PRPC PRPC PRPC MAMC NCLA NCLA NCLA NCLA NCLA NCLA NCLA NCLA NCLA NCLA NCLA NCLA NCLA

$$$$
