4
     RDKit          3D

 13 13  0  0  0  0  0  0  0  0999 V2000
    2.9884    0.9399  -37.8728 O   0  0  0  0  0  0  0  0  0  0  0  0
    1.9670    1.6469  -38.6005 C   0  0  0  0  0  0  0  0  0  0  0  0
    2.5188    3.0750  -38.7333 C   0  0  0  0  0  0  0  0  0  0  0  0
    2.0480    3.8592  -39.9228 C   0  0  0  0  0  0  0  0  0  0  0  0
    3.4566    3.3126  -39.8800 C   0  0  0  0  0  0  0  0  0  0  0  0
    2.7203    0.0210  -37.7107 H   0  0  0  0  0  0  0  0  0  0  0  0
    1.0465    1.6525  -38.0322 H   0  0  0  0  0  0  0  0  0  0  0  0
    1.8593    1.2192  -39.5893 H   0  0  0  0  0  0  0  0  0  0  0  0
    2.6860    3.5998  -37.8015 H   0  0  0  0  0  0  0  0  0  0  0  0
    1.9331    4.9253  -39.7761 H   0  0  0  0  0  0  0  0  0  0  0  0
    1.3491    3.3700  -40.5892 H   0  0  0  0  0  0  0  0  0  0  0  0
    3.6709    2.4771  -40.5330 H   0  0  0  0  0  0  0  0  0  0  0  0
    4.2474    4.0332  -39.7139 H   0  0  0  0  0  0  0  0  0  0  0  0
  1  2  1  0
  1  6  1  0
  2  3  1  0
  2  7  1  0
  2  8  1  0
  3  4  1  0
  3  5  1  0
  3  9  1  0
  4  5  1  0
  4 10  1  0
  4 11  1  0
  5 12  1  0
  5 13  1  0
M  END
> <intraLJ>
-0.229    

> <intraEL>
1.555     

> <intraDihe>
2.184     

> <interLJ>
0.000     

> <interEJ>
0.000     

> <gridLJ>
-2.664    

> <gridEL>
0.000     

> <totalE>
0.845     

> <LGFE>
-2.664  

> <LE>
-0.533  

> <SMILES>
OCC1CC1

> <atom.dprop.GFE>
-0.96 -0.44 -0.46 -0.38 -0.43 0 0 0 0 0 0 0 0

> <atom.prop.CLASS>
MEOO PRPC PRPC PRPC PRPC NCLA NCLA NCLA NCLA NCLA NCLA NCLA NCLA

$$$$
