7_2
     RDKit          3D

 14 14  0  0  1  0  0  0  0  0999 V2000
  -12.1813  -14.8389   -6.5918 O   0  0  0  0  0  0  0  0  0  0  0  0
  -11.3248  -13.9488   -6.7224 C   0  0  0  0  0  0  0  0  0  0  0  0
  -10.6297  -13.7579   -7.7586 O   0  0  0  0  0  0  0  0  0  0  0  0
  -10.9654  -13.0282   -5.5549 C   0  0  0  0  0  0  0  0  0  0  0  0
  -10.4360  -13.8338   -4.3456 C   0  0  0  0  0  0  0  0  0  0  0  0
  -11.4839  -13.0527   -3.5143 C   0  0  0  0  0  0  0  0  0  0  0  0
  -12.1946  -12.7110   -4.7586 N   0  0  0  0  0  0  0  0  0  0  0  0
  -10.3416  -12.1920   -5.8371 H   0  0  0  0  0  0  0  0  0  0  0  0
  -10.6520  -14.8930   -4.3957 H   0  0  0  0  0  0  0  0  0  0  0  0
   -9.4123  -13.6086   -4.0832 H   0  0  0  0  0  0  0  0  0  0  0  0
  -11.0571  -12.1823   -3.0334 H   0  0  0  0  0  0  0  0  0  0  0  0
  -12.0555  -13.6788   -2.8430 H   0  0  0  0  0  0  0  0  0  0  0  0
  -12.5287  -11.7141   -4.8666 H   0  0  0  0  0  0  0  0  0  0  0  0
  -12.9047  -13.4628   -5.1002 H   0  0  0  0  0  0  0  0  0  0  0  0
  1  2  2  0
  2  3  1  0
  2  4  1  0
  4  5  1  0
  4  7  1  0
  4  8  1  0
  5  6  1  0
  5  9  1  0
  5 10  1  0
  6  7  1  0
  6 11  1  0
  6 12  1  0
  7 13  1  0
  7 14  1  0
M  CHG  2   3  -1   7   1
M  END
> <intraLJ>
1.570     

> <intraEL>
-1.169    

> <intraDihe>
6.942     

> <interLJ>
0.000     

> <interEJ>
0.000     

> <gridLJ>
-2.760    

> <gridEL>
0.000     

> <totalE>
4.584     

> <LGFE>
-2.760  

> <LE>
-0.394  

> <SMILES>
O=C([O-])C1CC[NH2+]1

> <atom.dprop.GFE>
0 -0.75 0 -0.048 -0.22 -0.15 -1.6 0 0 0 0 0 0 0

> <atom.prop.CLASS>
NCLA ACEC NCLA PRPC PRPC PRPC MAMN NCLA NCLA NCLA NCLA NCLA NCLA NCLA

$$$$
