35_2
     RDKit          3D

 10 10  0  0  0  0  0  0  0  0999 V2000
  -25.0352   -0.8748  -12.9702 N   0  0  0  0  0  0  0  0  0  0  0  0
  -24.2640   -2.0011  -12.7506 C   0  0  0  0  0  0  0  0  0  0  0  0
  -23.6336   -2.2278  -11.6059 N   0  0  0  0  0  0  0  0  0  0  0  0
  -22.9969   -3.3927  -11.7498 C   0  0  0  0  0  0  0  0  0  0  0  0
  -23.2207   -3.8619  -12.9315 N   0  0  0  0  0  0  0  0  0  0  0  0
  -24.0416   -2.9596  -13.5896 N   0  0  0  0  0  0  0  0  0  0  0  0
  -25.6144   -0.9798  -13.8173 H   0  0  0  0  0  0  0  0  0  0  0  0
  -25.5525   -0.5234  -12.1545 H   0  0  0  0  0  0  0  0  0  0  0  0
  -23.6333   -1.6066  -10.7876 H   0  0  0  0  0  0  0  0  0  0  0  0
  -22.4084   -3.8143  -10.9756 H   0  0  0  0  0  0  0  0  0  0  0  0
  1  2  1  0
  1  7  1  0
  1  8  1  0
  2  3  1  0
  2  6  2  0
  3  4  1  0
  3  9  1  0
  4  5  2  0
  4 10  1  0
  5  6  1  0
M  END
> <intraLJ>
-0.237    

> <intraEL>
-7.007    

> <intraDihe>
2.733     

> <interLJ>
0.000     

> <interEJ>
0.000     

> <gridLJ>
-2.869    

> <gridEL>
0.000     

> <totalE>
-7.381    

> <LGFE>
-2.869  

> <LE>
-0.478  

> <SMILES>
Nc1nnc[nH]1

> <atom.dprop.GFE>
-0.25 -0.13 -0.49 -0.13 -0.93 -0.93 0 0 0 0

> <atom.prop.CLASS>
GEND GEHC GEND GEHC GENA GENA NCLA NCLA NCLA NCLA

$$$$
