81_1
     RDKit          3D

 18 18  0  0  1  0  0  0  0  0999 V2000
  -40.1309    9.3002   30.4784 N   0  0  0  0  0  0  0  0  0  0  0  0
  -40.5902   10.1987   29.3885 C   0  0  0  0  0  0  0  0  0  0  0  0
  -40.4732   11.6934   29.7441 C   0  0  0  0  0  0  0  0  0  0  0  0
  -40.7249   12.6109   28.5503 C   0  0  0  0  0  0  0  0  0  0  0  0
  -40.0480   13.9130   28.9783 C   0  0  0  0  0  0  0  0  0  0  0  0
  -39.0918   13.4785   30.0908 C   0  0  0  0  0  0  0  0  0  0  0  0
  -39.1610   12.0666   30.1193 O   0  0  0  0  0  0  0  0  0  0  0  0
  -40.1905    8.3316   30.1960 H   0  0  0  0  0  0  0  0  0  0  0  0
  -40.6619    9.4514   31.3250 H   0  0  0  0  0  0  0  0  0  0  0  0
  -39.9957   10.0188   28.4906 H   0  0  0  0  0  0  0  0  0  0  0  0
  -41.6344    9.9770   29.1592 H   0  0  0  0  0  0  0  0  0  0  0  0
  -41.1741   11.9370   30.5442 H   0  0  0  0  0  0  0  0  0  0  0  0
  -40.2266   12.2085   27.6662 H   0  0  0  0  0  0  0  0  0  0  0  0
  -41.7908   12.7488   28.3676 H   0  0  0  0  0  0  0  0  0  0  0  0
  -40.7799   14.6174   29.3770 H   0  0  0  0  0  0  0  0  0  0  0  0
  -39.5012   14.3586   28.1468 H   0  0  0  0  0  0  0  0  0  0  0  0
  -39.4277   13.8825   31.0485 H   0  0  0  0  0  0  0  0  0  0  0  0
  -38.0712   13.8070   29.8870 H   0  0  0  0  0  0  0  0  0  0  0  0
  1  2  1  0
  1  8  1  0
  1  9  1  0
  2  3  1  0
  2 10  1  0
  2 11  1  0
  3  4  1  0
  3  7  1  0
  3 12  1  0
  4  5  1  0
  4 13  1  0
  4 14  1  0
  5  6  1  0
  5 15  1  0
  5 16  1  0
  6  7  1  0
  6 17  1  0
  6 18  1  0
M  END
> <intraLJ>
-0.297    

> <intraEL>
3.013     

> <intraDihe>
9.268     

> <interLJ>
0.000     

> <interEJ>
0.000     

> <gridLJ>
-2.129    

> <gridEL>
0.000     

> <totalE>
9.855     

> <LGFE>
-2.129  

> <LE>
-0.304  

> <SMILES>
NCC1CCCO1

> <atom.dprop.GFE>
-0.3 -0.32 -0.33 -0.26 -0.23 -0.29 -0.39 0 0 0 0 0 0 0 0 0 0 0

> <atom.prop.CLASS>
GEND PRPC PRPC PRPC PRPC PRPC GENA NCLA NCLA NCLA NCLA NCLA NCLA NCLA NCLA NCLA NCLA NCLA

$$$$
