55
     RDKit          3D

  7  7  0  0  0  0  0  0  0  0999 V2000
   -4.0400   15.7079   -1.0228 C   0  0  0  0  0  0  0  0  0  0  0  0
   -2.9356   16.0491   -1.5683 N   0  0  0  0  0  0  0  0  0  0  0  0
   -2.1641   14.9153   -1.5888 N   0  0  0  0  0  0  0  0  0  0  0  0
   -2.8786   13.9997   -1.0535 C   0  0  0  0  0  0  0  0  0  0  0  0
   -4.0499   14.4460   -0.6868 O   0  0  0  0  0  0  0  0  0  0  0  0
   -4.8889   16.3155   -0.8314 H   0  0  0  0  0  0  0  0  0  0  0  0
   -2.6234   12.9829   -0.8925 H   0  0  0  0  0  0  0  0  0  0  0  0
  1  2  2  0
  1  5  1  0
  1  6  1  0
  2  3  1  0
  3  4  2  0
  4  5  1  0
  4  7  1  0
M  END
> <intraLJ>
-0.193    

> <intraEL>
-0.061    

> <intraDihe>
0.000     

> <interLJ>
0.000     

> <interEJ>
0.000     

> <gridLJ>
-3.802    

> <gridEL>
0.000     

> <totalE>
-4.056    

> <LGFE>
-3.802  

> <LE>
-0.760  

> <SMILES>
c1nnco1

> <atom.dprop.GFE>
-0.2 -1.1 -1.1 -0.36 -1 0 0

> <atom.prop.CLASS>
GEHC GENA GENA GEHC GENA NCLA NCLA

$$$$
