6
     RDKit          3D

 10 10  0  0  0  0  0  0  0  0999 V2000
  -39.4084    7.7468   18.3667 N   0  0  0  0  0  0  0  0  0  0  0  0
  -39.7251    7.0488   19.5168 C   0  0  0  0  0  0  0  0  0  0  0  0
  -38.8356    6.4046   20.3637 C   0  0  0  0  0  0  0  0  0  0  0  0
  -39.6000    5.8840   21.3324 C   0  0  0  0  0  0  0  0  0  0  0  0
  -40.8763    6.2082   21.0701 O   0  0  0  0  0  0  0  0  0  0  0  0
  -40.9375    6.9396   19.9264 N   0  0  0  0  0  0  0  0  0  0  0  0
  -40.1817    8.3785   18.1208 H   0  0  0  0  0  0  0  0  0  0  0  0
  -38.4978    8.2159   18.4312 H   0  0  0  0  0  0  0  0  0  0  0  0
  -37.7859    6.3329   20.2626 H   0  0  0  0  0  0  0  0  0  0  0  0
  -39.3480    5.3099   22.1872 H   0  0  0  0  0  0  0  0  0  0  0  0
  1  2  1  0
  1  7  1  0
  1  8  1  0
  2  3  1  0
  2  6  2  0
  3  4  2  0
  3  9  1  0
  4  5  1  0
  4 10  1  0
  5  6  1  0
M  END
> <intraLJ>
-0.275    

> <intraEL>
-7.962    

> <intraDihe>
1.578     

> <interLJ>
0.000     

> <interEJ>
0.000     

> <gridLJ>
-2.737    

> <gridEL>
0.000     

> <totalE>
-9.397    

> <LGFE>
-2.737  

> <LE>
-0.456  

> <SMILES>
Nc1ccon1

> <atom.dprop.GFE>
-0.49 -0.25 -0.15 -0.21 -0.8 -0.83 0 0 0 0

> <atom.prop.CLASS>
GEND GEHC GEHC GEHC GENA GENA NCLA NCLA NCLA NCLA

$$$$
