45
     RDKit          3D

 13 13  0  0  0  0  0  0  0  0999 V2000
  -15.5738    6.9368  -17.2140 O   0  0  0  0  0  0  0  0  0  0  0  0
  -15.7368    7.6253  -16.0536 C   0  0  0  0  0  0  0  0  0  0  0  0
  -14.7167    8.4688  -15.6265 C   0  0  0  0  0  0  0  0  0  0  0  0
  -14.8734    9.1783  -14.4404 C   0  0  0  0  0  0  0  0  0  0  0  0
  -16.0432    9.0398  -13.6929 C   0  0  0  0  0  0  0  0  0  0  0  0
  -17.0591    8.1907  -14.1314 C   0  0  0  0  0  0  0  0  0  0  0  0
  -16.9097    7.4778  -15.3176 C   0  0  0  0  0  0  0  0  0  0  0  0
  -16.3579    6.3867  -17.3959 H   0  0  0  0  0  0  0  0  0  0  0  0
  -13.8337    8.5640  -16.2043 H   0  0  0  0  0  0  0  0  0  0  0  0
  -14.1033    9.8253  -14.1037 H   0  0  0  0  0  0  0  0  0  0  0  0
  -16.1598    9.5815  -12.7893 H   0  0  0  0  0  0  0  0  0  0  0  0
  -17.9455    8.0889  -13.5594 H   0  0  0  0  0  0  0  0  0  0  0  0
  -17.6792    6.8327  -15.6518 H   0  0  0  0  0  0  0  0  0  0  0  0
  1  2  1  0
  1  8  1  0
  2  3  2  0
  2  7  1  0
  3  4  1  0
  3  9  1  0
  4  5  2  0
  4 10  1  0
  5  6  1  0
  5 11  1  0
  6  7  2  0
  6 12  1  0
  7 13  1  0
M  END
> <intraLJ>
11.192    

> <intraEL>
-0.882    

> <intraDihe>
0.000     

> <interLJ>
0.000     

> <interEJ>
0.000     

> <gridLJ>
-2.267    

> <gridEL>
0.000     

> <totalE>
8.042     

> <LGFE>
-2.267  

> <LE>
-0.324  

> <SMILES>
Oc1ccccc1

> <atom.dprop.GFE>
-0.84 -0.2 -0.26 -0.24 -0.27 -0.23 -0.23 0 0 0 0 0 0

> <atom.prop.CLASS>
MEOO BENC BENC BENC BENC BENC BENC NCLA NCLA NCLA NCLA NCLA NCLA

$$$$
