59_2
     RDKit          3D

  9  8  0  0  0  0  0  0  0  0999 V2000
   10.3615   -9.4123  -28.3792 C   0  0  0  0  0  0  0  0  0  0  0  0
    9.0195  -10.0986  -28.5831 C   0  0  0  0  0  0  0  0  0  0  0  0
    8.0345   -9.3726  -28.5114 O   0  0  0  0  0  0  0  0  0  0  0  0
    8.9680  -11.5653  -28.8507 C   0  0  0  0  0  0  0  0  0  0  0  0
    8.9132  -12.3742  -27.8668 O   0  0  0  0  0  0  0  0  0  0  0  0
    8.9780  -12.0273  -30.0377 O   0  0  0  0  0  0  0  0  0  0  0  0
   10.9335   -9.5790  -29.2807 H   0  0  0  0  0  0  0  0  0  0  0  0
   10.8287   -9.8954  -27.5324 H   0  0  0  0  0  0  0  0  0  0  0  0
   10.1823   -8.3613  -28.1989 H   0  0  0  0  0  0  0  0  0  0  0  0
  1  2  1  0
  1  7  1  0
  1  8  1  0
  1  9  1  0
  2  3  2  0
  2  4  1  0
  4  5  2  0
  4  6  1  0
M  CHG  1   6  -1
M  END
> <intraLJ>
-0.400    

> <intraEL>
6.231     

> <intraDihe>
1.260     

> <interLJ>
0.000     

> <interEJ>
0.000     

> <gridLJ>
-2.306    

> <gridEL>
0.000     

> <totalE>
4.784     

> <LGFE>
-2.306  

> <LE>
-0.384  

> <SMILES>
CC(=O)C(=O)[O-]

> <atom.dprop.GFE>
-0.39 0 -0.045 -1.9 0 0 0 0 0

> <atom.prop.CLASS>
PRPC NCLA GENA ACEC NCLA NCLA NCLA NCLA NCLA

$$$$
