17_1
     RDKit          3D

 15 15  0  0  0  0  0  0  0  0999 V2000
  -28.7721   15.2498   24.2554 N   0  0  0  0  0  0  0  0  0  0  0  0
  -28.7829   15.3649   25.5906 C   0  0  0  0  0  0  0  0  0  0  0  0
  -28.1905   14.5151   26.2199 O   0  0  0  0  0  0  0  0  0  0  0  0
  -29.5550   16.5628   26.2004 C   0  0  0  0  0  0  0  0  0  0  0  0
  -30.1084   17.5489   25.2660 N   0  0  0  0  0  0  0  0  0  0  0  0
  -29.1158   17.1066   27.5200 C   0  0  0  0  0  0  0  0  0  0  0  0
  -30.3918   16.2915   27.4065 C   0  0  0  0  0  0  0  0  0  0  0  0
  -28.2826   14.4736   23.8480 H   0  0  0  0  0  0  0  0  0  0  0  0
  -29.2544   15.9459   23.7125 H   0  0  0  0  0  0  0  0  0  0  0  0
  -29.3278   18.0548   24.8378 H   0  0  0  0  0  0  0  0  0  0  0  0
  -30.6411   18.2359   25.8058 H   0  0  0  0  0  0  0  0  0  0  0  0
  -29.2288   18.1703   27.6778 H   0  0  0  0  0  0  0  0  0  0  0  0
  -28.2731   16.6161   27.9907 H   0  0  0  0  0  0  0  0  0  0  0  0
  -30.3549   15.2854   27.8018 H   0  0  0  0  0  0  0  0  0  0  0  0
  -31.3278   16.8275   27.4812 H   0  0  0  0  0  0  0  0  0  0  0  0
  1  2  1  0
  1  8  1  0
  1  9  1  0
  2  3  2  0
  2  4  1  0
  4  5  1  0
  4  6  1  0
  4  7  1  0
  5 10  1  0
  5 11  1  0
  6  7  1  0
  6 12  1  0
  6 13  1  0
  7 14  1  0
  7 15  1  0
M  END
> <intraLJ>
3.004     

> <intraEL>
0.469     

> <intraDihe>
8.478     

> <interLJ>
0.000     

> <interEJ>
0.000     

> <gridLJ>
-2.494    

> <gridEL>
0.000     

> <totalE>
9.458     

> <LGFE>
-2.494  

> <LE>
-0.356  

> <SMILES>
NC(=O)C1(N)CC1

> <atom.dprop.GFE>
-0.59 0 -1 -0.23 -0.075 -0.29 -0.31 0 0 0 0 0 0 0 0

> <atom.prop.CLASS>
GEND NCLA GENA PRPC GEND PRPC PRPC NCLA NCLA NCLA NCLA NCLA NCLA NCLA NCLA

$$$$
