40_1
     RDKit          3D

 11 11  0  0  0  0  0  0  0  0999 V2000
  -23.1355    3.9724    4.3149 O   0  0  0  0  0  0  0  0  0  0  0  0
  -22.4181    4.6812    5.2360 C   0  0  0  0  0  0  0  0  0  0  0  0
  -23.0685    5.6583    5.9756 C   0  0  0  0  0  0  0  0  0  0  0  0
  -22.3201    6.3613    6.9000 C   0  0  0  0  0  0  0  0  0  0  0  0
  -21.0109    6.1070    7.0763 N   0  0  0  0  0  0  0  0  0  0  0  0
  -20.3925    5.1668    6.3631 N   0  0  0  0  0  0  0  0  0  0  0  0
  -21.0658    4.4517    5.4517 C   0  0  0  0  0  0  0  0  0  0  0  0
  -22.5969    3.3077    3.8433 H   0  0  0  0  0  0  0  0  0  0  0  0
  -24.0990    5.8529    5.8312 H   0  0  0  0  0  0  0  0  0  0  0  0
  -22.7616    7.1203    7.4944 H   0  0  0  0  0  0  0  0  0  0  0  0
  -20.5379    3.7148    4.9056 H   0  0  0  0  0  0  0  0  0  0  0  0
  1  2  1  0
  1  8  1  0
  2  3  2  0
  2  7  1  0
  3  4  1  0
  3  9  1  0
  4  5  2  0
  4 10  1  0
  5  6  1  0
  6  7  2  0
  7 11  1  0
M  END
> <intraLJ>
16.086    

> <intraEL>
2.571     

> <intraDihe>
0.000     

> <interLJ>
0.000     

> <interEJ>
0.000     

> <gridLJ>
-5.141    

> <gridEL>
0.000     

> <totalE>
13.517    

> <LGFE>
-5.141  

> <LE>
-0.734  

> <SMILES>
Oc1ccnnc1

> <atom.dprop.GFE>
-0.85 -0.19 -0.13 -0.055 -1.9 -1.9 -0.18 0 0 0 0

> <atom.prop.CLASS>
MEOO BENC BENC BENC GENA GENA BENC NCLA NCLA NCLA NCLA

$$$$
