36_1
     RDKit          3D

 13 13  0  0  0  0  0  0  0  0999 V2000
  -38.2948    7.8961   19.3751 N   0  0  0  0  0  0  0  0  0  0  0  0
  -38.6406    6.5533   18.9231 C   0  0  0  0  0  0  0  0  0  0  0  0
  -39.8034    6.1369   19.8037 C   0  0  0  0  0  0  0  0  0  0  0  0
  -39.7662    5.2412   20.8046 C   0  0  0  0  0  0  0  0  0  0  0  0
  -40.9785    5.1531   21.3249 O   0  0  0  0  0  0  0  0  0  0  0  0
  -41.7282    6.0116   20.6141 C   0  0  0  0  0  0  0  0  0  0  0  0
  -41.0730    6.6237   19.6917 N   0  0  0  0  0  0  0  0  0  0  0  0
  -38.1168    7.8115   20.3696 H   0  0  0  0  0  0  0  0  0  0  0  0
  -39.1168    8.4758   19.2846 H   0  0  0  0  0  0  0  0  0  0  0  0
  -37.8107    5.8810   19.0984 H   0  0  0  0  0  0  0  0  0  0  0  0
  -38.9554    6.5788   17.8871 H   0  0  0  0  0  0  0  0  0  0  0  0
  -38.9642    4.6602   21.1809 H   0  0  0  0  0  0  0  0  0  0  0  0
  -42.7578    6.1166   20.8514 H   0  0  0  0  0  0  0  0  0  0  0  0
  1  2  1  0
  1  8  1  0
  1  9  1  0
  2  3  1  0
  2 10  1  0
  2 11  1  0
  3  4  2  0
  3  7  1  0
  4  5  1  0
  4 12  1  0
  5  6  1  0
  6  7  2  0
  6 13  1  0
M  END
> <intraLJ>
0.941     

> <intraEL>
3.213     

> <intraDihe>
2.708     

> <interLJ>
0.000     

> <interEJ>
0.000     

> <gridLJ>
-3.272    

> <gridEL>
0.000     

> <totalE>
3.590     

> <LGFE>
-3.272  

> <LE>
-0.467  

> <SMILES>
NCc1cocn1

> <atom.dprop.GFE>
-0.84 -0.34 -0.25 -0.21 -0.68 -0.12 -0.83 0 0 0 0 0 0

> <atom.prop.CLASS>
GEND PRPC GEHC GEHC GENA GEHC GENA NCLA NCLA NCLA NCLA NCLA NCLA

$$$$
