23_2
     RDKit          3D

 10 10  0  0  0  0  0  0  0  0999 V2000
  -18.5375   -5.0031   25.8114 O   0  0  0  0  0  0  0  0  0  0  0  0
  -18.5055   -3.9343   25.1556 C   0  0  0  0  0  0  0  0  0  0  0  0
  -19.1023   -3.8869   23.9282 N   0  0  0  0  0  0  0  0  0  0  0  0
  -19.0683   -2.7709   23.2460 C   0  0  0  0  0  0  0  0  0  0  0  0
  -18.4374   -1.6445   23.7510 C   0  0  0  0  0  0  0  0  0  0  0  0
  -17.8418   -1.7313   24.9999 C   0  0  0  0  0  0  0  0  0  0  0  0
  -17.8738   -2.8451   25.6861 N   0  0  0  0  0  0  0  0  0  0  0  0
  -19.5351   -2.7494   22.2968 H   0  0  0  0  0  0  0  0  0  0  0  0
  -18.4100   -0.7444   23.1990 H   0  0  0  0  0  0  0  0  0  0  0  0
  -17.3488   -0.8964   25.4237 H   0  0  0  0  0  0  0  0  0  0  0  0
  1  2  1  0
  2  3  2  0
  2  7  1  0
  3  4  1  0
  4  5  2  0
  4  8  1  0
  5  6  1  0
  5  9  1  0
  6  7  2  0
  6 10  1  0
M  CHG  1   1  -1
M  END
> <intraLJ>
17.983    

> <intraEL>
-7.943    

> <intraDihe>
0.000     

> <interLJ>
0.000     

> <interEJ>
0.000     

> <gridLJ>
-2.940    

> <gridEL>
0.000     

> <totalE>
7.101     

> <LGFE>
-2.940  

> <LE>
-0.420  

> <SMILES>
[O-]c1ncccn1

> <atom.dprop.GFE>
0 -0.21 -1.6 -0.051 -0.15 -0.14 -0.76 0 0 0

> <atom.prop.CLASS>
NCLA GEHC GENA BENC BENC BENC GENA NCLA NCLA NCLA

$$$$
