57_2
     RDKit          3D

 14 14  0  0  0  0  0  0  0  0999 V2000
    4.5991   16.1834   -7.8685 O   0  0  0  0  0  0  0  0  0  0  0  0
    5.0847   15.8588   -8.9765 C   0  0  0  0  0  0  0  0  0  0  0  0
    4.3704   15.6000   -9.9733 O   0  0  0  0  0  0  0  0  0  0  0  0
    6.5939   15.8439   -9.1349 C   0  0  0  0  0  0  0  0  0  0  0  0
    7.3091   17.0322   -8.4297 C   0  0  0  0  0  0  0  0  0  0  0  0
    8.2450   17.0864   -9.6722 C   0  0  0  0  0  0  0  0  0  0  0  0
    7.0861   16.4407  -10.4858 C   0  0  0  0  0  0  0  0  0  0  0  0
    7.0100   14.8721   -8.9004 H   0  0  0  0  0  0  0  0  0  0  0  0
    7.8107   16.7639   -7.5093 H   0  0  0  0  0  0  0  0  0  0  0  0
    6.6904   17.9162   -8.3438 H   0  0  0  0  0  0  0  0  0  0  0  0
    9.1021   16.4308   -9.5769 H   0  0  0  0  0  0  0  0  0  0  0  0
    8.5022   18.0878   -9.9886 H   0  0  0  0  0  0  0  0  0  0  0  0
    6.4118   17.1803  -10.8994 H   0  0  0  0  0  0  0  0  0  0  0  0
    7.4085   15.6995  -11.2044 H   0  0  0  0  0  0  0  0  0  0  0  0
  1  2  2  0
  2  3  1  0
  2  4  1  0
  4  5  1  0
  4  7  1  0
  4  8  1  0
  5  6  1  0
  5  9  1  0
  5 10  1  0
  6  7  1  0
  6 11  1  0
  6 12  1  0
  7 13  1  0
  7 14  1  0
M  CHG  1   3  -1
M  END
> <intraLJ>
0.263     

> <intraEL>
2.110     

> <intraDihe>
17.731    

> <interLJ>
0.000     

> <interEJ>
0.000     

> <gridLJ>
-2.741    

> <gridEL>
0.000     

> <totalE>
17.363    

> <LGFE>
-2.741  

> <LE>
-0.392  

> <SMILES>
O=C([O-])C1CCC1

> <atom.dprop.GFE>
0 -1.8 0 -0.16 -0.22 -0.28 -0.27 0 0 0 0 0 0 0

> <atom.prop.CLASS>
NCLA ACEC NCLA PRPC PRPC PRPC PRPC NCLA NCLA NCLA NCLA NCLA NCLA NCLA

$$$$
