15_2
     RDKit          3D

 14 14  0  0  0  0  0  0  0  0999 V2000
   -5.2388    9.8732   -7.9156 N   0  0  0  0  0  0  0  0  0  0  0  0
   -6.3146   10.2215   -8.6328 C   0  0  0  0  0  0  0  0  0  0  0  0
   -6.8679    9.4324   -9.6619 C   0  0  0  0  0  0  0  0  0  0  0  0
   -7.9766    9.8864  -10.3344 C   0  0  0  0  0  0  0  0  0  0  0  0
   -8.5355   11.1306   -9.9798 C   0  0  0  0  0  0  0  0  0  0  0  0
   -7.9724   11.8781   -8.9687 C   0  0  0  0  0  0  0  0  0  0  0  0
   -6.8673   11.4009   -8.3156 N   0  0  0  0  0  0  0  0  0  0  0  0
   -4.8289   10.4472   -7.1608 H   0  0  0  0  0  0  0  0  0  0  0  0
   -4.7662    8.9713   -8.1142 H   0  0  0  0  0  0  0  0  0  0  0  0
   -6.4205    8.5015   -9.9021 H   0  0  0  0  0  0  0  0  0  0  0  0
   -8.4128    9.3103  -11.1155 H   0  0  0  0  0  0  0  0  0  0  0  0
   -9.3921   11.4845  -10.4972 H   0  0  0  0  0  0  0  0  0  0  0  0
   -8.3294   12.8235   -8.6396 H   0  0  0  0  0  0  0  0  0  0  0  0
   -6.4320   11.9452   -7.5574 H   0  0  0  0  0  0  0  0  0  0  0  0
  1  2  1  0
  1  8  1  0
  1  9  1  0
  2  3  2  0
  2  7  1  0
  3  4  1  0
  3 10  1  0
  4  5  2  0
  4 11  1  0
  5  6  1  0
  5 12  1  0
  6  7  2  0
  6 13  1  0
  7 14  1  0
M  CHG  1   7   1
M  END
> <intraLJ>
8.433     

> <intraEL>
1.228     

> <intraDihe>
0.000     

> <interLJ>
0.000     

> <interEJ>
0.000     

> <gridLJ>
-3.717    

> <gridEL>
0.000     

> <totalE>
5.943     

> <LGFE>
-3.717  

> <LE>
-0.531  

> <SMILES>
Nc1cccc[nH+]1

> <atom.dprop.GFE>
-1.3 -0.28 -0.2 -0.19 -0.18 -0.15 -1.5 0 0 0 0 0 0 0

> <atom.prop.CLASS>
GEND BENC BENC BENC BENC BENC MAMN NCLA NCLA NCLA NCLA NCLA NCLA NCLA

$$$$
