26_2
     RDKit          3D

 13 13  0  0  0  0  0  0  0  0999 V2000
  -18.3297    6.6396   -4.2578 O   0  0  0  0  0  0  0  0  0  0  0  0
  -18.0380    7.9113   -3.6272 C   0  0  0  0  0  0  0  0  0  0  0  0
  -17.0540    7.5972   -2.5233 C   0  0  0  0  0  0  0  0  0  0  0  0
  -17.1613    7.6497   -1.1758 C   0  0  0  0  0  0  0  0  0  0  0  0
  -15.9352    7.2489   -0.6555 C   0  0  0  0  0  0  0  0  0  0  0  0
  -15.0937    6.9563   -1.6080 N   0  0  0  0  0  0  0  0  0  0  0  0
  -15.7917    7.1736   -2.7573 N   0  0  0  0  0  0  0  0  0  0  0  0
  -18.9633    6.7636   -4.9848 H   0  0  0  0  0  0  0  0  0  0  0  0
  -18.9408    8.3192   -3.1880 H   0  0  0  0  0  0  0  0  0  0  0  0
  -17.5665    8.5758   -4.3400 H   0  0  0  0  0  0  0  0  0  0  0  0
  -18.0127    7.9413   -0.6193 H   0  0  0  0  0  0  0  0  0  0  0  0
  -15.6933    7.1808    0.3748 H   0  0  0  0  0  0  0  0  0  0  0  0
  -15.4049    7.0325   -3.7108 H   0  0  0  0  0  0  0  0  0  0  0  0
  1  2  1  0
  1  8  1  0
  2  3  1  0
  2  9  1  0
  2 10  1  0
  3  4  2  0
  3  7  1  0
  4  5  1  0
  4 11  1  0
  5  6  2  0
  5 12  1  0
  6  7  1  0
  7 13  1  0
M  END
> <intraLJ>
0.083     

> <intraEL>
1.022     

> <intraDihe>
1.725     

> <interLJ>
0.000     

> <interEJ>
0.000     

> <gridLJ>
-5.480    

> <gridEL>
0.000     

> <totalE>
-2.649    

> <LGFE>
-5.480  

> <LE>
-0.783  

> <SMILES>
OCc1ccn[nH]1

> <atom.dprop.GFE>
-0.55 -0.41 -0.42 -0.28 -0.51 -2 -1.3 0 0 0 0 0 0

> <atom.prop.CLASS>
MEOO PRPC GEHC GEHC GEHC GENA GEND NCLA NCLA NCLA NCLA NCLA NCLA

$$$$
