81_2
     RDKit          3D

 19 19  0  0  1  0  0  0  0  0999 V2000
   -5.3903   -7.4168    6.4567 N   0  0  0  0  0  0  0  0  0  0  0  0
   -5.4691   -6.9717    5.0428 C   0  0  0  0  0  0  0  0  0  0  0  0
   -6.2432   -8.0096    4.2147 C   0  0  0  0  0  0  0  0  0  0  0  0
   -5.5759   -9.3784    4.1263 C   0  0  0  0  0  0  0  0  0  0  0  0
   -6.1053   -9.9151    2.7954 C   0  0  0  0  0  0  0  0  0  0  0  0
   -6.6587   -8.6846    2.0726 C   0  0  0  0  0  0  0  0  0  0  0  0
   -6.2782   -7.5717    2.8683 O   0  0  0  0  0  0  0  0  0  0  0  0
   -5.0098   -6.7065    7.0630 H   0  0  0  0  0  0  0  0  0  0  0  0
   -4.8670   -8.2770    6.5289 H   0  0  0  0  0  0  0  0  0  0  0  0
   -6.3484   -7.6453    6.7178 H   0  0  0  0  0  0  0  0  0  0  0  0
   -6.0256   -6.0325    4.9933 H   0  0  0  0  0  0  0  0  0  0  0  0
   -4.4780   -6.8137    4.6103 H   0  0  0  0  0  0  0  0  0  0  0  0
   -7.2628   -8.1150    4.5919 H   0  0  0  0  0  0  0  0  0  0  0  0
   -4.4901   -9.2732    4.0717 H   0  0  0  0  0  0  0  0  0  0  0  0
   -5.8600  -10.0236    4.9597 H   0  0  0  0  0  0  0  0  0  0  0  0
   -6.9073  -10.6376    2.9601 H   0  0  0  0  0  0  0  0  0  0  0  0
   -5.3026  -10.3758    2.2161 H   0  0  0  0  0  0  0  0  0  0  0  0
   -7.7473   -8.7495    2.0185 H   0  0  0  0  0  0  0  0  0  0  0  0
   -6.2468   -8.6029    1.0643 H   0  0  0  0  0  0  0  0  0  0  0  0
  1  2  1  0
  1  8  1  0
  1  9  1  0
  1 10  1  0
  2  3  1  0
  2 11  1  0
  2 12  1  0
  3  4  1  0
  3  7  1  0
  3 13  1  0
  4  5  1  0
  4 14  1  0
  4 15  1  0
  5  6  1  0
  5 16  1  0
  5 17  1  0
  6  7  1  0
  6 18  1  0
  6 19  1  0
M  CHG  1   1   1
M  END
> <intraLJ>
-0.745    

> <intraEL>
2.670     

> <intraDihe>
7.602     

> <interLJ>
0.000     

> <interEJ>
0.000     

> <gridLJ>
-2.551    

> <gridEL>
0.000     

> <totalE>
6.977     

> <LGFE>
-2.551  

> <LE>
-0.364  

> <SMILES>
[NH3+]CC1CCCO1

> <atom.dprop.GFE>
-0.19 -0.077 -0.22 -0.11 -0.34 -0.29 -1.3 0 0 0 0 0 0 0 0 0 0 0 0

> <atom.prop.CLASS>
MAMN PRPC PRPC PRPC PRPC PRPC GENA NCLA NCLA NCLA NCLA NCLA NCLA NCLA NCLA NCLA NCLA NCLA NCLA

$$$$
