13
     RDKit          3D

 13 12  0  0  0  0  0  0  0  0999 V2000
    0.0025   -5.8134   -4.3552 C   0  0  0  0  0  0  0  0  0  0  0  0
    0.0252   -5.5141   -2.8410 C   0  0  0  0  0  0  0  0  0  0  0  0
   -1.2181   -6.1301   -2.2340 C   0  0  0  0  0  0  0  0  0  0  0  0
   -1.2007   -7.1727   -1.5990 O   0  0  0  0  0  0  0  0  0  0  0  0
   -2.3991   -5.4783   -2.3877 N   0  0  0  0  0  0  0  0  0  0  0  0
   -3.5782   -6.0103   -1.8276 O   0  0  0  0  0  0  0  0  0  0  0  0
    0.8812   -5.3536   -4.8087 H   0  0  0  0  0  0  0  0  0  0  0  0
   -0.9065   -5.3835   -4.7816 H   0  0  0  0  0  0  0  0  0  0  0  0
    0.0194   -6.8940   -4.5114 H   0  0  0  0  0  0  0  0  0  0  0  0
   -0.0216   -4.4438   -2.6929 H   0  0  0  0  0  0  0  0  0  0  0  0
    0.9034   -5.9635   -2.3982 H   0  0  0  0  0  0  0  0  0  0  0  0
   -2.4707   -4.5854   -2.9019 H   0  0  0  0  0  0  0  0  0  0  0  0
   -3.2868   -6.8411   -1.3781 H   0  0  0  0  0  0  0  0  0  0  0  0
  1  2  1  0
  1  7  1  0
  1  8  1  0
  1  9  1  0
  2  3  1  0
  2 10  1  0
  2 11  1  0
  3  4  2  0
  3  5  1  0
  5  6  1  0
  5 12  1  0
  6 13  1  0
M  END
> <intraLJ>
0.080     

> <intraEL>
2.378     

> <intraDihe>
5.910     

> <interLJ>
0.000     

> <interEJ>
0.000     

> <gridLJ>
-2.558    

> <gridEL>
0.000     

> <totalE>
5.811     

> <LGFE>
-2.558  

> <LE>
-0.426  

> <SMILES>
CCC(=O)NO

> <atom.dprop.GFE>
-0.18 -0.04 0 -0.32 -0.71 -1.3 0 0 0 0 0 0 0

> <atom.prop.CLASS>
PRPC PRPC NCLA GENA GEND MEOO NCLA NCLA NCLA NCLA NCLA NCLA NCLA

$$$$
