36_2
     RDKit          3D

 14 14  0  0  0  0  0  0  0  0999 V2000
  -39.1547   -6.6004   25.1356 N   0  0  0  0  0  0  0  0  0  0  0  0
  -38.3516   -5.5294   24.5466 C   0  0  0  0  0  0  0  0  0  0  0  0
  -38.6292   -4.3520   25.4630 C   0  0  0  0  0  0  0  0  0  0  0  0
  -37.8276   -3.8690   26.4268 C   0  0  0  0  0  0  0  0  0  0  0  0
  -38.4424   -2.8506   26.9986 O   0  0  0  0  0  0  0  0  0  0  0  0
  -39.6201   -2.7372   26.3672 C   0  0  0  0  0  0  0  0  0  0  0  0
  -39.7825   -3.6146   25.4342 N   0  0  0  0  0  0  0  0  0  0  0  0
  -38.7659   -7.5053   24.9229 H   0  0  0  0  0  0  0  0  0  0  0  0
  -40.1086   -6.4938   24.8259 H   0  0  0  0  0  0  0  0  0  0  0  0
  -39.1387   -6.3880   26.1330 H   0  0  0  0  0  0  0  0  0  0  0  0
  -38.6786   -5.2980   23.5399 H   0  0  0  0  0  0  0  0  0  0  0  0
  -37.2952   -5.7665   24.6159 H   0  0  0  0  0  0  0  0  0  0  0  0
  -36.8634   -4.1710   26.7544 H   0  0  0  0  0  0  0  0  0  0  0  0
  -40.2958   -1.9733   26.6669 H   0  0  0  0  0  0  0  0  0  0  0  0
  1  2  1  0
  1  8  1  0
  1  9  1  0
  1 10  1  0
  2  3  1  0
  2 11  1  0
  2 12  1  0
  3  4  2  0
  3  7  1  0
  4  5  1  0
  4 13  1  0
  5  6  1  0
  6  7  2  0
  6 14  1  0
M  CHG  1   1   1
M  END
> <intraLJ>
0.654     

> <intraEL>
5.069     

> <intraDihe>
12.055    

> <interLJ>
0.000     

> <interEJ>
0.000     

> <gridLJ>
-2.287    

> <gridEL>
0.000     

> <totalE>
15.492    

> <LGFE>
-2.287  

> <LE>
-0.327  

> <SMILES>
[NH3+]Cc1cocn1

> <atom.dprop.GFE>
-0.34 -0.22 -0.18 -0.079 -0.6 -0.15 -0.71 0 0 0 0 0 0 0

> <atom.prop.CLASS>
MAMN PRPC GEHC GEHC GENA GEHC GENA NCLA NCLA NCLA NCLA NCLA NCLA NCLA

$$$$
