17_2
     RDKit          3D

 16 16  0  0  0  0  0  0  0  0999 V2000
   11.6000    7.7754  -42.6692 N   0  0  0  0  0  0  0  0  0  0  0  0
   10.6636    8.5958  -42.1575 C   0  0  0  0  0  0  0  0  0  0  0  0
    9.9371    8.1331  -41.3063 O   0  0  0  0  0  0  0  0  0  0  0  0
   10.4663   10.0694  -42.5860 C   0  0  0  0  0  0  0  0  0  0  0  0
    9.6333   10.2334  -43.7677 N   0  0  0  0  0  0  0  0  0  0  0  0
   11.5895   11.0426  -42.4216 C   0  0  0  0  0  0  0  0  0  0  0  0
   10.3559   11.1322  -41.5398 C   0  0  0  0  0  0  0  0  0  0  0  0
   11.6371    6.8310  -42.3144 H   0  0  0  0  0  0  0  0  0  0  0  0
   12.2488    8.0709  -43.3801 H   0  0  0  0  0  0  0  0  0  0  0  0
    9.3742    9.2203  -44.0306 H   0  0  0  0  0  0  0  0  0  0  0  0
   10.2200   10.6910  -44.5263 H   0  0  0  0  0  0  0  0  0  0  0  0
    8.7744   10.7946  -43.4943 H   0  0  0  0  0  0  0  0  0  0  0  0
   11.7021   11.8215  -43.1656 H   0  0  0  0  0  0  0  0  0  0  0  0
   12.4941   10.6785  -41.9495 H   0  0  0  0  0  0  0  0  0  0  0  0
   10.4785   10.8264  -40.5074 H   0  0  0  0  0  0  0  0  0  0  0  0
    9.6938   11.9676  -41.7293 H   0  0  0  0  0  0  0  0  0  0  0  0
  1  2  1  0
  1  8  1  0
  1  9  1  0
  2  3  2  0
  2  4  1  0
  4  5  1  0
  4  6  1  0
  4  7  1  0
  5 10  1  0
  5 11  1  0
  5 12  1  0
  6  7  1  0
  6 13  1  0
  6 14  1  0
  7 15  1  0
  7 16  1  0
M  CHG  1   5   1
M  END
> <intraLJ>
-0.402    

> <intraEL>
0.230     

> <intraDihe>
6.232     

> <interLJ>
0.000     

> <interEJ>
0.000     

> <gridLJ>
-2.823    

> <gridEL>
0.000     

> <totalE>
3.238     

> <LGFE>
-2.823  

> <LE>
-0.403  

> <SMILES>
NC(=O)C1([NH3+])CC1

> <atom.dprop.GFE>
-0.73 0 -1.2 -0.16 -0.41 -0.13 -0.22 0 0 0 0 0 0 0 0 0

> <atom.prop.CLASS>
GEND NCLA GENA PRPC MAMN PRPC PRPC NCLA NCLA NCLA NCLA NCLA NCLA NCLA NCLA NCLA

$$$$
