43
     RDKit          3D

 16 16  0  0  0  0  0  0  0  0999 V2000
   12.7789    6.1847    3.6318 O   0  0  0  0  0  0  0  0  0  0  0  0
   13.4821    5.8140    4.6607 B   0  0  0  0  0  0  0  0  0  0  0  0
   12.8327    5.1303    5.5558 O   0  0  0  0  0  0  0  0  0  0  0  0
   15.0555    6.1480    4.7997 C   0  0  0  0  0  0  0  0  0  0  0  0
   15.4783    6.5365    6.2432 C   0  0  0  0  0  0  0  0  0  0  0  0
   16.3848    7.6190    5.5870 C   0  0  0  0  0  0  0  0  0  0  0  0
   15.4154    7.5972    4.3691 C   0  0  0  0  0  0  0  0  0  0  0  0
   13.2553    6.6879    2.9486 H   0  0  0  0  0  0  0  0  0  0  0  0
   13.3487    4.8375    6.3274 H   0  0  0  0  0  0  0  0  0  0  0  0
   15.6657    5.3780    4.3431 H   0  0  0  0  0  0  0  0  0  0  0  0
   16.0200    5.7631    6.7690 H   0  0  0  0  0  0  0  0  0  0  0  0
   14.6703    6.9687    6.8194 H   0  0  0  0  0  0  0  0  0  0  0  0
   17.3702    7.2435    5.3415 H   0  0  0  0  0  0  0  0  0  0  0  0
   16.4032    8.5606    6.1199 H   0  0  0  0  0  0  0  0  0  0  0  0
   14.5916    8.2906    4.4844 H   0  0  0  0  0  0  0  0  0  0  0  0
   15.9076    7.6640    3.4093 H   0  0  0  0  0  0  0  0  0  0  0  0
  1  2  1  0
  1  8  1  0
  2  3  1  0
  2  4  1  0
  3  9  1  0
  4  5  1  0
  4  7  1  0
  4 10  1  0
  5  6  1  0
  5 11  1  0
  5 12  1  0
  6  7  1  0
  6 13  1  0
  6 14  1  0
  7 15  1  0
  7 16  1  0
M  END
> <intraLJ>
3.496     

> <intraEL>
0.177     

> <intraDihe>
30.179    

> <interLJ>
0.000     

> <interEJ>
0.000     

> <gridLJ>
-2.104    

> <gridEL>
0.000     

> <totalE>
31.748    

> <LGFE>
-2.104  

> <LE>
-0.301  

> <SMILES>
OB(O)C1CCC1

> <atom.dprop.GFE>
-0.99 0 -0.67 -0.044 -0.077 -0.15 -0.17 0 0 0 0 0 0 0 0 0

> <atom.prop.CLASS>
MEOO NCLA MEOO PRPC PRPC PRPC PRPC NCLA NCLA NCLA NCLA NCLA NCLA NCLA NCLA NCLA

$$$$
