27_1
     RDKit          3D

 11 11  0  0  0  0  0  0  0  0999 V2000
   19.4256   -1.8841  -12.0461 N   0  0  0  0  0  0  0  0  0  0  0  0
   18.5559   -2.4664  -12.9355 C   0  0  0  0  0  0  0  0  0  0  0  0
   18.2874   -3.7328  -12.9775 N   0  0  0  0  0  0  0  0  0  0  0  0
   17.3871   -3.8478  -14.0018 C   0  0  0  0  0  0  0  0  0  0  0  0
   17.1283   -2.6425  -14.5614 C   0  0  0  0  0  0  0  0  0  0  0  0
   17.8854   -1.7582  -13.8736 N   0  0  0  0  0  0  0  0  0  0  0  0
   19.1568   -0.9480  -11.7230 H   0  0  0  0  0  0  0  0  0  0  0  0
   19.6538   -2.5408  -11.2864 H   0  0  0  0  0  0  0  0  0  0  0  0
   16.9563   -4.7681  -14.3081 H   0  0  0  0  0  0  0  0  0  0  0  0
   16.4933   -2.3716  -15.3648 H   0  0  0  0  0  0  0  0  0  0  0  0
   17.9751   -0.7438  -14.0228 H   0  0  0  0  0  0  0  0  0  0  0  0
  1  2  1  0
  1  7  1  0
  1  8  1  0
  2  3  2  0
  2  6  1  0
  3  4  1  0
  4  5  2  0
  4  9  1  0
  5  6  1  0
  5 10  1  0
  6 11  1  0
M  END
> <intraLJ>
-0.193    

> <intraEL>
-10.326   

> <intraDihe>
2.842     

> <interLJ>
0.000     

> <interEJ>
0.000     

> <gridLJ>
-3.031    

> <gridEL>
0.000     

> <totalE>
-10.707   

> <LGFE>
-3.031  

> <LE>
-0.505  

> <SMILES>
Nc1ncc[nH]1

> <atom.dprop.GFE>
-0.82 -0.23 -0.74 -0.0047 -0.15 -1.1 0 0 0 0 0

> <atom.prop.CLASS>
GEND GEHC GENA GEHC GEHC GEND NCLA NCLA NCLA NCLA NCLA

$$$$
