27_2
     RDKit          3D

 12 12  0  0  0  0  0  0  0  0999 V2000
  -30.8982  -24.4196   10.3755 N   0  0  0  0  0  0  0  0  0  0  0  0
  -30.0930  -23.5992    9.7437 C   0  0  0  0  0  0  0  0  0  0  0  0
  -29.0672  -23.9556    9.0053 N   0  0  0  0  0  0  0  0  0  0  0  0
  -28.4592  -22.8182    8.5044 C   0  0  0  0  0  0  0  0  0  0  0  0
  -29.1625  -21.7668    8.9739 C   0  0  0  0  0  0  0  0  0  0  0  0
  -30.1828  -22.2890    9.7498 N   0  0  0  0  0  0  0  0  0  0  0  0
  -31.6780  -24.0514   10.9332 H   0  0  0  0  0  0  0  0  0  0  0  0
  -30.7536  -25.4339   10.3155 H   0  0  0  0  0  0  0  0  0  0  0  0
  -28.7937  -24.9355    8.8485 H   0  0  0  0  0  0  0  0  0  0  0  0
  -27.6034  -22.8450    7.8749 H   0  0  0  0  0  0  0  0  0  0  0  0
  -29.0222  -20.7246    8.8224 H   0  0  0  0  0  0  0  0  0  0  0  0
  -30.9101  -21.7726   10.2620 H   0  0  0  0  0  0  0  0  0  0  0  0
  1  2  2  0
  1  7  1  0
  1  8  1  0
  2  3  1  0
  2  6  1  0
  3  4  1  0
  3  9  1  0
  4  5  2  0
  4 10  1  0
  5  6  1  0
  5 11  1  0
  6 12  1  0
M  CHG  1   1   1
M  END
> <intraLJ>
-0.384    

> <intraEL>
3.349     

> <intraDihe>
0.000     

> <interLJ>
0.000     

> <interEJ>
0.000     

> <gridLJ>
-2.694    

> <gridEL>
0.000     

> <totalE>
0.272     

> <LGFE>
-2.694  

> <LE>
-0.449  

> <SMILES>
[NH2+]=c1[nH]cc[nH]1

> <atom.dprop.GFE>
-1.4 -1.3 0 0.063 -0.044 0 0 0 0 0 0 0

> <atom.prop.CLASS>
MAMN MAMC NCLA GEHC GEHC NCLA NCLA NCLA NCLA NCLA NCLA NCLA

$$$$
