35_2
     RDKit          3D

 10 10  0  0  0  0  0  0  0  0999 V2000
   -9.7695   -3.1037   12.2937 N   0  0  0  0  0  0  0  0  0  0  0  0
  -10.7227   -2.1658   12.6448 C   0  0  0  0  0  0  0  0  0  0  0  0
  -11.3932   -1.4534   11.7492 N   0  0  0  0  0  0  0  0  0  0  0  0
  -12.2178   -0.6606   12.4381 C   0  0  0  0  0  0  0  0  0  0  0  0
  -12.0605   -0.8710   13.7021 N   0  0  0  0  0  0  0  0  0  0  0  0
  -11.0863   -1.8468   13.8440 N   0  0  0  0  0  0  0  0  0  0  0  0
   -9.5230   -3.7023   13.0968 H   0  0  0  0  0  0  0  0  0  0  0  0
   -9.9565   -3.6261   11.4285 H   0  0  0  0  0  0  0  0  0  0  0  0
  -11.2730   -1.5039   10.7301 H   0  0  0  0  0  0  0  0  0  0  0  0
  -12.8754    0.0208   11.9620 H   0  0  0  0  0  0  0  0  0  0  0  0
  1  2  1  0
  1  7  1  0
  1  8  1  0
  2  3  1  0
  2  6  2  0
  3  4  1  0
  3  9  1  0
  4  5  2  0
  4 10  1  0
  5  6  1  0
M  END
> <intraLJ>
-0.237    

> <intraEL>
-7.007    

> <intraDihe>
2.733     

> <interLJ>
0.000     

> <interEJ>
0.000     

> <gridLJ>
-2.298    

> <gridEL>
0.000     

> <totalE>
-6.810    

> <LGFE>
-2.298  

> <LE>
-0.383  

> <SMILES>
Nc1nnc[nH]1

> <atom.dprop.GFE>
-0.42 0.044 -0.19 -0.035 -0.85 -0.85 0 0 0 0

> <atom.prop.CLASS>
GEND GEHC GEND GEHC GENA GENA NCLA NCLA NCLA NCLA

$$$$
