49_2
     RDKit          3D

 19 19  0  0  1  0  0  0  0  0999 V2000
   23.8586    0.1421  -21.8698 O   0  0  0  0  0  0  0  0  0  0  0  0
   22.7451    0.9605  -21.5316 C   0  0  0  0  0  0  0  0  0  0  0  0
   22.3873    0.7217  -20.0531 C   0  0  0  0  0  0  0  0  0  0  0  0
   23.4540    1.1256  -19.0360 C   0  0  0  0  0  0  0  0  0  0  0  0
   23.1791    0.1950  -17.8350 C   0  0  0  0  0  0  0  0  0  0  0  0
   22.0342   -0.7054  -18.2976 C   0  0  0  0  0  0  0  0  0  0  0  0
   22.1305   -0.6961  -19.7642 N   0  0  0  0  0  0  0  0  0  0  0  0
   24.0400    0.1976  -22.8178 H   0  0  0  0  0  0  0  0  0  0  0  0
   23.0047    2.0105  -21.6844 H   0  0  0  0  0  0  0  0  0  0  0  0
   21.8854    0.7112  -22.1556 H   0  0  0  0  0  0  0  0  0  0  0  0
   21.4794    1.2907  -19.8320 H   0  0  0  0  0  0  0  0  0  0  0  0
   24.4544    0.9351  -19.4301 H   0  0  0  0  0  0  0  0  0  0  0  0
   23.3498    2.1764  -18.7627 H   0  0  0  0  0  0  0  0  0  0  0  0
   22.8847    0.7606  -16.9487 H   0  0  0  0  0  0  0  0  0  0  0  0
   24.0636   -0.4066  -17.6151 H   0  0  0  0  0  0  0  0  0  0  0  0
   21.0911   -0.2460  -17.9847 H   0  0  0  0  0  0  0  0  0  0  0  0
   22.1050   -1.7114  -17.8744 H   0  0  0  0  0  0  0  0  0  0  0  0
   21.3074   -1.0133  -20.2652 H   0  0  0  0  0  0  0  0  0  0  0  0
   22.9286   -1.2293  -20.0736 H   0  0  0  0  0  0  0  0  0  0  0  0
  1  2  1  0
  1  8  1  0
  2  3  1  0
  2  9  1  0
  2 10  1  0
  3  4  1  0
  3  7  1  0
  3 11  1  0
  4  5  1  0
  4 12  1  0
  4 13  1  0
  5  6  1  0
  5 14  1  0
  5 15  1  0
  6  7  1  0
  6 16  1  0
  6 17  1  0
  7 18  1  0
  7 19  1  0
M  CHG  1   7   1
M  END
> <intraLJ>
1.091     

> <intraEL>
7.861     

> <intraDihe>
8.266     

> <interLJ>
0.000     

> <interEJ>
0.000     

> <gridLJ>
-5.174    

> <gridEL>
0.000     

> <totalE>
12.043    

> <LGFE>
-5.174  

> <LE>
-0.739  

> <SMILES>
OCC1CCC[NH2+]1

> <atom.dprop.GFE>
-0.84 -0.43 -0.41 -0.42 -0.36 -0.23 -2.5 0 0 0 0 0 0 0 0 0 0 0 0

> <atom.prop.CLASS>
MEOO PRPC PRPC PRPC PRPC PRPC MAMN NCLA NCLA NCLA NCLA NCLA NCLA NCLA NCLA NCLA NCLA NCLA NCLA

$$$$
