13
     RDKit          3D

 13 12  0  0  0  0  0  0  0  0999 V2000
   10.7818   -5.3780  -10.6700 C   0  0  0  0  0  0  0  0  0  0  0  0
   10.1148   -5.0097  -12.0126 C   0  0  0  0  0  0  0  0  0  0  0  0
   10.9211   -5.6597  -13.1176 C   0  0  0  0  0  0  0  0  0  0  0  0
   10.7184   -6.7994  -13.5056 O   0  0  0  0  0  0  0  0  0  0  0  0
   11.8980   -4.9302  -13.7148 N   0  0  0  0  0  0  0  0  0  0  0  0
   12.6635   -5.4925  -14.7564 O   0  0  0  0  0  0  0  0  0  0  0  0
   10.2242   -4.8954   -9.8666 H   0  0  0  0  0  0  0  0  0  0  0  0
   11.8116   -5.0143  -10.6814 H   0  0  0  0  0  0  0  0  0  0  0  0
   10.7648   -6.4623  -10.5423 H   0  0  0  0  0  0  0  0  0  0  0  0
   10.1615   -3.9376  -12.1465 H   0  0  0  0  0  0  0  0  0  0  0  0
    9.1041   -5.3937  -12.0299 H   0  0  0  0  0  0  0  0  0  0  0  0
   12.1034   -3.9565  -13.4381 H   0  0  0  0  0  0  0  0  0  0  0  0
   12.2997   -6.4049  -14.8675 H   0  0  0  0  0  0  0  0  0  0  0  0
  1  2  1  0
  1  7  1  0
  1  8  1  0
  1  9  1  0
  2  3  1  0
  2 10  1  0
  2 11  1  0
  3  4  2  0
  3  5  1  0
  5  6  1  0
  5 12  1  0
  6 13  1  0
M  END
> <intraLJ>
0.054     

> <intraEL>
2.411     

> <intraDihe>
5.948     

> <interLJ>
0.000     

> <interEJ>
0.000     

> <gridLJ>
-2.230    

> <gridEL>
0.000     

> <totalE>
6.184     

> <LGFE>
-2.230  

> <LE>
-0.372  

> <SMILES>
CCC(=O)NO

> <atom.dprop.GFE>
-0.28 -0.32 0 -0.56 -0.67 -0.41 0 0 0 0 0 0 0

> <atom.prop.CLASS>
PRPC PRPC NCLA GENA GEND MEOO NCLA NCLA NCLA NCLA NCLA NCLA NCLA

$$$$
