35_1
     RDKit          3D

 10 10  0  0  0  0  0  0  0  0999 V2000
   17.1223   -4.8674   -5.7358 N   0  0  0  0  0  0  0  0  0  0  0  0
   17.9449   -4.3942   -6.7060 C   0  0  0  0  0  0  0  0  0  0  0  0
   17.6327   -4.4899   -8.0032 N   0  0  0  0  0  0  0  0  0  0  0  0
   18.6441   -3.9327   -8.5691 C   0  0  0  0  0  0  0  0  0  0  0  0
   19.5050   -3.5220   -7.6324 N   0  0  0  0  0  0  0  0  0  0  0  0
   19.0479   -3.8130   -6.4042 N   0  0  0  0  0  0  0  0  0  0  0  0
   17.2961   -4.3209   -4.8881 H   0  0  0  0  0  0  0  0  0  0  0  0
   16.1594   -4.8157   -6.0809 H   0  0  0  0  0  0  0  0  0  0  0  0
   18.8331   -3.7858   -9.6017 H   0  0  0  0  0  0  0  0  0  0  0  0
   20.4027   -3.0433   -7.8219 H   0  0  0  0  0  0  0  0  0  0  0  0
  1  2  1  0
  1  7  1  0
  1  8  1  0
  2  3  1  0
  2  6  2  0
  3  4  2  0
  4  5  1  0
  4  9  1  0
  5  6  1  0
  5 10  1  0
M  END
> <intraLJ>
0.124     

> <intraEL>
-9.860    

> <intraDihe>
2.848     

> <interLJ>
0.000     

> <interEJ>
0.000     

> <gridLJ>
-2.956    

> <gridEL>
0.000     

> <totalE>
-9.844    

> <LGFE>
-2.956  

> <LE>
-0.493  

> <SMILES>
Nc1nc[nH]n1

> <atom.dprop.GFE>
-0.43 -0.21 -1.1 -0.2 -0.55 -0.49 0 0 0 0

> <atom.prop.CLASS>
GEND GEHC GENA GEHC GEND GENA NCLA NCLA NCLA NCLA

$$$$
