6
     RDKit          3D

 10 10  0  0  0  0  0  0  0  0999 V2000
   17.4242    9.9941  -45.8833 N   0  0  0  0  0  0  0  0  0  0  0  0
   17.0140   11.2393  -46.3210 C   0  0  0  0  0  0  0  0  0  0  0  0
   15.9917   12.0079  -45.7848 C   0  0  0  0  0  0  0  0  0  0  0  0
   15.9735   13.1215  -46.5286 C   0  0  0  0  0  0  0  0  0  0  0  0
   16.9393   13.0148  -47.4552 O   0  0  0  0  0  0  0  0  0  0  0  0
   17.5833   11.8268  -47.3111 N   0  0  0  0  0  0  0  0  0  0  0  0
   18.3744    9.8021  -46.2265 H   0  0  0  0  0  0  0  0  0  0  0  0
   17.3224    9.8823  -44.8682 H   0  0  0  0  0  0  0  0  0  0  0  0
   15.3600   11.7649  -44.9729 H   0  0  0  0  0  0  0  0  0  0  0  0
   15.3569   13.9826  -46.4806 H   0  0  0  0  0  0  0  0  0  0  0  0
  1  2  1  0
  1  7  1  0
  1  8  1  0
  2  3  1  0
  2  6  2  0
  3  4  2  0
  3  9  1  0
  4  5  1  0
  4 10  1  0
  5  6  1  0
M  END
> <intraLJ>
-0.275    

> <intraEL>
-7.962    

> <intraDihe>
1.578     

> <interLJ>
0.000     

> <interEJ>
0.000     

> <gridLJ>
-2.134    

> <gridEL>
0.000     

> <totalE>
-8.794    

> <LGFE>
-2.134  

> <LE>
-0.356  

> <SMILES>
Nc1ccon1

> <atom.dprop.GFE>
-0.67 -0.13 -0.14 -0.11 -0.6 -0.48 0 0 0 0

> <atom.prop.CLASS>
GEND GEHC GEHC GEHC GENA GENA NCLA NCLA NCLA NCLA

$$$$
