74_1
     RDKit          3D

 12 12  0  0  0  0  0  0  0  0999 V2000
  -15.1554   11.0644   -7.5354 O   0  0  0  0  0  0  0  0  0  0  0  0
  -16.2404   10.3106   -7.4601 C   0  0  0  0  0  0  0  0  0  0  0  0
  -17.4217   10.6509   -8.1094 C   0  0  0  0  0  0  0  0  0  0  0  0
  -18.5112    9.8049   -7.9774 C   0  0  0  0  0  0  0  0  0  0  0  0
  -18.3518    8.6627   -7.1983 C   0  0  0  0  0  0  0  0  0  0  0  0
  -17.1247    8.4069   -6.5857 C   0  0  0  0  0  0  0  0  0  0  0  0
  -16.0790    9.2269   -6.7180 N   0  0  0  0  0  0  0  0  0  0  0  0
  -14.5334   10.5535   -6.9834 H   0  0  0  0  0  0  0  0  0  0  0  0
  -17.4738   11.5356   -8.6872 H   0  0  0  0  0  0  0  0  0  0  0  0
  -19.4344   10.0205   -8.4525 H   0  0  0  0  0  0  0  0  0  0  0  0
  -19.1582    7.9883   -7.0698 H   0  0  0  0  0  0  0  0  0  0  0  0
  -17.0003    7.5363   -5.9919 H   0  0  0  0  0  0  0  0  0  0  0  0
  1  2  1  0
  1  8  1  0
  2  3  2  0
  2  7  1  0
  3  4  1  0
  3  9  1  0
  4  5  2  0
  4 10  1  0
  5  6  1  0
  5 11  1  0
  6  7  2  0
  6 12  1  0
M  END
> <intraLJ>
13.107    

> <intraEL>
-5.244    

> <intraDihe>
0.000     

> <interLJ>
0.000     

> <interEJ>
0.000     

> <gridLJ>
-3.070    

> <gridEL>
0.000     

> <totalE>
4.792     

> <LGFE>
-3.070  

> <LE>
-0.439  

> <SMILES>
Oc1ccccn1

> <atom.dprop.GFE>
-1.1 -0.27 -0.036 -0.047 -0.079 -0.24 -1.3 0 0 0 0 0

> <atom.prop.CLASS>
MEOO GEHC BENC BENC BENC GEHC GENA NCLA NCLA NCLA NCLA NCLA

$$$$
