17_1
     RDKit          3D

 15 15  0  0  0  0  0  0  0  0999 V2000
   17.2340    9.7449  -45.7781 N   0  0  0  0  0  0  0  0  0  0  0  0
   16.6351   10.6594  -46.5535 C   0  0  0  0  0  0  0  0  0  0  0  0
   16.0087   10.2467  -47.5055 O   0  0  0  0  0  0  0  0  0  0  0  0
   16.8065   12.1505  -46.1660 C   0  0  0  0  0  0  0  0  0  0  0  0
   17.4953   12.4399  -44.9037 N   0  0  0  0  0  0  0  0  0  0  0  0
   15.7402   13.1223  -46.5515 C   0  0  0  0  0  0  0  0  0  0  0  0
   17.0764   13.1156  -47.2724 C   0  0  0  0  0  0  0  0  0  0  0  0
   17.1378    8.7760  -46.0229 H   0  0  0  0  0  0  0  0  0  0  0  0
   17.7566   10.0644  -44.9801 H   0  0  0  0  0  0  0  0  0  0  0  0
   16.8912   12.1365  -44.1345 H   0  0  0  0  0  0  0  0  0  0  0  0
   17.5905   13.4551  -44.8178 H   0  0  0  0  0  0  0  0  0  0  0  0
   15.5547   13.9455  -45.8754 H   0  0  0  0  0  0  0  0  0  0  0  0
   14.8963   12.7240  -47.1007 H   0  0  0  0  0  0  0  0  0  0  0  0
   17.0781   12.7102  -48.2753 H   0  0  0  0  0  0  0  0  0  0  0  0
   17.7575   13.9269  -47.0564 H   0  0  0  0  0  0  0  0  0  0  0  0
  1  2  1  0
  1  8  1  0
  1  9  1  0
  2  3  2  0
  2  4  1  0
  4  5  1  0
  4  6  1  0
  4  7  1  0
  5 10  1  0
  5 11  1  0
  6  7  1  0
  6 12  1  0
  6 13  1  0
  7 14  1  0
  7 15  1  0
M  END
> <intraLJ>
2.998     

> <intraEL>
0.465     

> <intraDihe>
8.490     

> <interLJ>
0.000     

> <interEJ>
0.000     

> <gridLJ>
-2.322    

> <gridEL>
0.000     

> <totalE>
9.630     

> <LGFE>
-2.322  

> <LE>
-0.332  

> <SMILES>
NC(=O)C1(N)CC1

> <atom.dprop.GFE>
-0.67 0 -0.43 -0.32 -0.42 -0.22 -0.26 0 0 0 0 0 0 0 0

> <atom.prop.CLASS>
GEND NCLA GENA PRPC GEND PRPC PRPC NCLA NCLA NCLA NCLA NCLA NCLA NCLA NCLA

$$$$
