39_3
     RDKit          3D

 11 11  0  0  0  0  0  0  0  0999 V2000
   12.0180   14.7928   -7.6207 O   0  0  0  0  0  0  0  0  0  0  0  0
   11.0665   15.7184   -7.7839 C   0  0  0  0  0  0  0  0  0  0  0  0
   10.3041   16.1621   -6.7188 C   0  0  0  0  0  0  0  0  0  0  0  0
    9.3402   17.1252   -6.9867 C   0  0  0  0  0  0  0  0  0  0  0  0
    9.2073   17.5755   -8.2919 C   0  0  0  0  0  0  0  0  0  0  0  0
    9.9860   17.0976   -9.2790 N   0  0  0  0  0  0  0  0  0  0  0  0
   10.9135   16.1737   -9.0322 N   0  0  0  0  0  0  0  0  0  0  0  0
   12.3872   14.6732   -8.5164 H   0  0  0  0  0  0  0  0  0  0  0  0
   10.4568   15.7760   -5.7460 H   0  0  0  0  0  0  0  0  0  0  0  0
    8.7220   17.5070   -6.2162 H   0  0  0  0  0  0  0  0  0  0  0  0
    8.4856   18.3100   -8.5431 H   0  0  0  0  0  0  0  0  0  0  0  0
  1  2  1  0
  1  8  1  0
  2  3  2  0
  2  7  1  0
  3  4  1  0
  3  9  1  0
  4  5  2  0
  4 10  1  0
  5  6  1  0
  5 11  1  0
  6  7  2  0
M  END
> <intraLJ>
16.308    

> <intraEL>
-0.658    

> <intraDihe>
0.000     

> <interLJ>
0.000     

> <interEJ>
0.000     

> <gridLJ>
-2.589    

> <gridEL>
0.000     

> <totalE>
13.061    

> <LGFE>
-2.589  

> <LE>
-0.370  

> <SMILES>
Oc1cccnn1

> <atom.dprop.GFE>
-0.99 -0.027 -0.053 -0.081 -0.083 -0.68 -0.68 0 0 0 0

> <atom.prop.CLASS>
MEOO BENC BENC BENC BENC GENA GENA NCLA NCLA NCLA NCLA

$$$$
