32
     RDKit          3D

 17 16  0  0  0  0  0  0  0  0999 V2000
  -29.6692  -11.4482   25.0233 C   0  0  0  0  0  0  0  0  0  0  0  0
  -29.6642   -9.9459   24.7508 C   0  0  0  0  0  0  0  0  0  0  0  0
  -29.2966   -9.1657   26.0117 C   0  0  0  0  0  0  0  0  0  0  0  0
  -31.0297   -9.5907   24.4176 N   0  0  0  0  0  0  0  0  0  0  0  0
  -31.4701   -9.2516   23.1916 C   0  0  0  0  0  0  0  0  0  0  0  0
  -30.8056   -9.4698   22.1998 O   0  0  0  0  0  0  0  0  0  0  0  0
  -32.6583   -8.6515   23.1032 N   0  0  0  0  0  0  0  0  0  0  0  0
  -28.6676  -11.7733   25.3031 H   0  0  0  0  0  0  0  0  0  0  0  0
  -29.9748  -11.9806   24.1217 H   0  0  0  0  0  0  0  0  0  0  0  0
  -30.3608  -11.6867   25.8315 H   0  0  0  0  0  0  0  0  0  0  0  0
  -28.9464   -9.7274   23.9587 H   0  0  0  0  0  0  0  0  0  0  0  0
  -29.9985   -9.3886   26.8154 H   0  0  0  0  0  0  0  0  0  0  0  0
  -29.3259   -8.0966   25.8006 H   0  0  0  0  0  0  0  0  0  0  0  0
  -28.2899   -9.4345   26.3297 H   0  0  0  0  0  0  0  0  0  0  0  0
  -31.5820   -9.1572   25.1657 H   0  0  0  0  0  0  0  0  0  0  0  0
  -32.8621   -8.2303   22.1903 H   0  0  0  0  0  0  0  0  0  0  0  0
  -33.0239   -8.2152   23.9505 H   0  0  0  0  0  0  0  0  0  0  0  0
  1  2  1  0
  1  8  1  0
  1  9  1  0
  1 10  1  0
  2  3  1  0
  2  4  1  0
  2 11  1  0
  3 12  1  0
  3 13  1  0
  3 14  1  0
  4  5  1  0
  4 15  1  0
  5  6  2  0
  5  7  1  0
  7 16  1  0
  7 17  1  0
M  END
> <intraLJ>
-0.724    

> <intraEL>
-9.447    

> <intraDihe>
5.507     

> <interLJ>
0.000     

> <interEJ>
0.000     

> <gridLJ>
-3.615    

> <gridEL>
0.000     

> <totalE>
-8.279    

> <LGFE>
-3.615  

> <LE>
-0.516  

> <SMILES>
CC(C)NC(N)=O

> <atom.dprop.GFE>
-0.42 -0.52 -0.45 -0.77 0 -1.1 -0.33 0 0 0 0 0 0 0 0 0 0

> <atom.prop.CLASS>
PRPC PRPC PRPC GEND NCLA GENA GEND NCLA NCLA NCLA NCLA NCLA NCLA NCLA NCLA NCLA NCLA

$$$$
