23_1
     RDKit          3D

 11 11  0  0  0  0  0  0  0  0999 V2000
   24.1446   16.3374   -6.3926 O   0  0  0  0  0  0  0  0  0  0  0  0
   24.4164   15.5418   -7.3959 C   0  0  0  0  0  0  0  0  0  0  0  0
   24.6982   14.2686   -7.1605 N   0  0  0  0  0  0  0  0  0  0  0  0
   24.9663   13.5011   -8.2032 C   0  0  0  0  0  0  0  0  0  0  0  0
   24.9464   14.0363   -9.4830 C   0  0  0  0  0  0  0  0  0  0  0  0
   24.6407   15.3796   -9.6403 C   0  0  0  0  0  0  0  0  0  0  0  0
   24.3751   16.1308   -8.5812 N   0  0  0  0  0  0  0  0  0  0  0  0
   23.9874   17.1689   -6.8699 H   0  0  0  0  0  0  0  0  0  0  0  0
   25.1953   12.4781   -8.0399 H   0  0  0  0  0  0  0  0  0  0  0  0
   25.1597   13.4289  -10.3226 H   0  0  0  0  0  0  0  0  0  0  0  0
   24.6148   15.8248  -10.6042 H   0  0  0  0  0  0  0  0  0  0  0  0
  1  2  1  0
  1  8  1  0
  2  3  2  0
  2  7  1  0
  3  4  1  0
  4  5  2  0
  4  9  1  0
  5  6  1  0
  5 10  1  0
  6  7  2  0
  6 11  1  0
M  END
> <intraLJ>
20.130    

> <intraEL>
-14.212   

> <intraDihe>
6.700     

> <interLJ>
0.000     

> <interEJ>
0.000     

> <gridLJ>
-2.297    

> <gridEL>
0.000     

> <totalE>
10.321    

> <LGFE>
-2.297  

> <LE>
-0.328  

> <SMILES>
Oc1ncccn1

> <atom.dprop.GFE>
-0.47 -0.2 -0.59 -0.11 -0.12 -0.12 -0.69 0 0 0 0

> <atom.prop.CLASS>
MEOO GEHC GENA BENC BENC BENC GENA NCLA NCLA NCLA NCLA

$$$$
