22
     RDKit          3D

 12 12  0  0  0  0  0  0  0  0999 V2000
  -37.9242    7.4475   14.4902 O   0  0  0  0  0  0  0  0  0  0  0  0
  -36.7769    8.1355   14.9790 S   0  0  0  0  0  0  0  0  0  0  0  0
  -36.8311    8.8014   16.2369 O   0  0  0  0  0  0  0  0  0  0  0  0
  -35.3393    7.1633   14.8339 C   0  0  0  0  0  0  0  0  0  0  0  0
  -34.7736    8.1713   13.6959 C   0  0  0  0  0  0  0  0  0  0  0  0
  -36.0690    9.1468   13.7517 C   0  0  0  0  0  0  0  0  0  0  0  0
  -35.4139    6.1772   14.3963 H   0  0  0  0  0  0  0  0  0  0  0  0
  -34.6292    7.1497   15.6488 H   0  0  0  0  0  0  0  0  0  0  0  0
  -34.6657    7.6874   12.7347 H   0  0  0  0  0  0  0  0  0  0  0  0
  -33.8681    8.6744   14.0070 H   0  0  0  0  0  0  0  0  0  0  0  0
  -35.7275   10.1388   14.0189 H   0  0  0  0  0  0  0  0  0  0  0  0
  -36.5128    9.1669   12.7652 H   0  0  0  0  0  0  0  0  0  0  0  0
  1  2  2  0
  2  3  2  0
  2  4  1  0
  2  6  1  0
  4  5  1  0
  4  7  1  0
  4  8  1  0
  5  6  1  0
  5  9  1  0
  5 10  1  0
  6 11  1  0
  6 12  1  0
M  END
> <intraLJ>
-0.830    

> <intraEL>
0.015     

> <intraDihe>
20.344    

> <interLJ>
0.000     

> <interEJ>
0.000     

> <gridLJ>
-2.260    

> <gridEL>
0.000     

> <totalE>
17.269    

> <LGFE>
-2.260  

> <LE>
-0.377  

> <SMILES>
O=S1(=O)CCC1

> <atom.dprop.GFE>
-0.56 0 -0.77 -0.35 -0.33 -0.24 0 0 0 0 0 0

> <atom.prop.CLASS>
GENA NCLA GENA PRPC PRPC PRPC NCLA NCLA NCLA NCLA NCLA NCLA

$$$$
