21_2
     RDKit          3D

 17 16  0  0  0  0  0  0  0  0999 V2000
   16.4481   13.1803  -34.3926 C   0  0  0  0  0  0  0  0  0  0  0  0
   17.5525   14.0027  -33.6917 C   0  0  0  0  0  0  0  0  0  0  0  0
   17.1114   15.4810  -33.7042 C   0  0  0  0  0  0  0  0  0  0  0  0
   18.8421   13.8765  -34.4858 C   0  0  0  0  0  0  0  0  0  0  0  0
   18.8524   14.2021  -35.7390 N   0  0  0  0  0  0  0  0  0  0  0  0
   19.8795   14.1555  -36.5560 O   0  0  0  0  0  0  0  0  0  0  0  0
   20.0020   13.4529  -33.9751 N   0  0  0  0  0  0  0  0  0  0  0  0
   15.5448   13.2358  -33.7826 H   0  0  0  0  0  0  0  0  0  0  0  0
   16.7820   12.1442  -34.4584 H   0  0  0  0  0  0  0  0  0  0  0  0
   16.2452   13.5787  -35.3872 H   0  0  0  0  0  0  0  0  0  0  0  0
   17.6938   13.6572  -32.6760 H   0  0  0  0  0  0  0  0  0  0  0  0
   16.9257   15.8120  -34.7272 H   0  0  0  0  0  0  0  0  0  0  0  0
   17.9038   16.0785  -33.2515 H   0  0  0  0  0  0  0  0  0  0  0  0
   16.2000   15.5727  -33.1122 H   0  0  0  0  0  0  0  0  0  0  0  0
   17.9148   14.5168  -36.0460 H   0  0  0  0  0  0  0  0  0  0  0  0
   20.8146   13.4174  -34.6084 H   0  0  0  0  0  0  0  0  0  0  0  0
   20.0787   13.1913  -32.9853 H   0  0  0  0  0  0  0  0  0  0  0  0
  1  2  1  0
  1  8  1  0
  1  9  1  0
  1 10  1  0
  2  3  1  0
  2  4  1  0
  2 11  1  0
  3 12  1  0
  3 13  1  0
  3 14  1  0
  4  5  2  0
  4  7  1  0
  5  6  1  0
  5 15  1  0
  7 16  1  0
  7 17  1  0
M  CHG  2   5   1   6  -1
M  END
> <intraLJ>
4.594     

> <intraEL>
-0.925    

> <intraDihe>
0.558     

> <interLJ>
0.000     

> <interEJ>
0.000     

> <gridLJ>
-2.078    

> <gridEL>
0.000     

> <totalE>
2.149     

> <LGFE>
-2.078  

> <LE>
-0.297  

> <SMILES>
CC(C)C(N)=[NH+][O-]

> <atom.dprop.GFE>
-0.53 -0.47 -0.37 -0.71 0 0 0 0 0 0 0 0 0 0 0 0 0

> <atom.prop.CLASS>
PRPC PRPC PRPC MAMC NCLA NCLA NCLA NCLA NCLA NCLA NCLA NCLA NCLA NCLA NCLA NCLA NCLA

$$$$
