78_2
     RDKit          3D

 14 13  0  0  0  0  0  0  0  0999 V2000
  -34.5214   -3.2392   10.5420 C   0  0  0  0  0  0  0  0  0  0  0  0
  -33.0890   -3.7913   10.7439 C   0  0  0  0  0  0  0  0  0  0  0  0
  -32.0708   -2.6615   10.8125 C   0  0  0  0  0  0  0  0  0  0  0  0
  -31.6201   -2.0996    9.7387 N   0  0  0  0  0  0  0  0  0  0  0  0
  -31.5794   -2.1907   11.9143 N   0  0  0  0  0  0  0  0  0  0  0  0
  -35.1970   -4.0934   10.4637 H   0  0  0  0  0  0  0  0  0  0  0  0
  -34.5661   -2.6624    9.6152 H   0  0  0  0  0  0  0  0  0  0  0  0
  -34.8109   -2.6353   11.4048 H   0  0  0  0  0  0  0  0  0  0  0  0
  -32.8459   -4.4197    9.8976 H   0  0  0  0  0  0  0  0  0  0  0  0
  -33.0591   -4.3351   11.6790 H   0  0  0  0  0  0  0  0  0  0  0  0
  -30.9292   -1.3360    9.7728 H   0  0  0  0  0  0  0  0  0  0  0  0
  -31.9521   -2.4140    8.8100 H   0  0  0  0  0  0  0  0  0  0  0  0
  -30.8885   -1.4272   11.9250 H   0  0  0  0  0  0  0  0  0  0  0  0
  -31.8877   -2.5863   12.8191 H   0  0  0  0  0  0  0  0  0  0  0  0
  1  2  1  0
  1  6  1  0
  1  7  1  0
  1  8  1  0
  2  3  1  0
  2  9  1  0
  2 10  1  0
  3  4  2  0
  3  5  1  0
  4 11  1  0
  4 12  1  0
  5 13  1  0
  5 14  1  0
M  CHG  1   4   1
M  END
> <intraLJ>
0.206     

> <intraEL>
-6.612    

> <intraDihe>
1.026     

> <interLJ>
0.000     

> <interEJ>
0.000     

> <gridLJ>
-3.387    

> <gridEL>
0.000     

> <totalE>
-8.767    

> <LGFE>
-3.387  

> <LE>
-0.677  

> <SMILES>
CCC(N)=[NH2+]

> <atom.dprop.GFE>
-0.034 0.13 -3.5 0 0 0 0 0 0 0 0 0 0 0

> <atom.prop.CLASS>
PRPC PRPC MAMC NCLA NCLA NCLA NCLA NCLA NCLA NCLA NCLA NCLA NCLA NCLA

$$$$
