15_1
     RDKit          3D

 13 13  0  0  0  0  0  0  0  0999 V2000
  -25.0552    7.2405   13.6897 N   0  0  0  0  0  0  0  0  0  0  0  0
  -24.0766    8.1014   13.3143 C   0  0  0  0  0  0  0  0  0  0  0  0
  -23.2940    8.7847   14.2461 C   0  0  0  0  0  0  0  0  0  0  0  0
  -22.3220    9.6532   13.7814 C   0  0  0  0  0  0  0  0  0  0  0  0
  -22.1803    9.7937   12.4043 C   0  0  0  0  0  0  0  0  0  0  0  0
  -23.0077    9.0676   11.5492 C   0  0  0  0  0  0  0  0  0  0  0  0
  -23.9446    8.2339   12.0036 N   0  0  0  0  0  0  0  0  0  0  0  0
  -25.6663    7.0186   12.8939 H   0  0  0  0  0  0  0  0  0  0  0  0
  -25.5375    7.4919   14.5585 H   0  0  0  0  0  0  0  0  0  0  0  0
  -23.4453    8.6312   15.2812 H   0  0  0  0  0  0  0  0  0  0  0  0
  -21.7028   10.1933   14.4519 H   0  0  0  0  0  0  0  0  0  0  0  0
  -21.4482   10.4464   12.0049 H   0  0  0  0  0  0  0  0  0  0  0  0
  -22.9039    9.1688   10.4981 H   0  0  0  0  0  0  0  0  0  0  0  0
  1  2  1  0
  1  8  1  0
  1  9  1  0
  2  3  2  0
  2  7  1  0
  3  4  1  0
  3 10  1  0
  4  5  2  0
  4 11  1  0
  5  6  1  0
  5 12  1  0
  6  7  2  0
  6 13  1  0
M  END
> <intraLJ>
13.521    

> <intraEL>
-12.491   

> <intraDihe>
2.164     

> <interLJ>
0.000     

> <interEJ>
0.000     

> <gridLJ>
-3.000    

> <gridEL>
0.000     

> <totalE>
0.194     

> <LGFE>
-3.000  

> <LE>
-0.429  

> <SMILES>
Nc1ccccn1

> <atom.dprop.GFE>
-0.84 -0.26 -0.26 -0.13 -0.18 -0.2 -1.1 0 0 0 0 0 0

> <atom.prop.CLASS>
GEND GEHC BENC BENC BENC GEHC GENA NCLA NCLA NCLA NCLA NCLA NCLA

$$$$
