7_1
     RDKit          3D

 14 14  0  0  1  0  0  0  0  0999 V2000
    9.7792   12.2042  -35.7848 O   0  0  0  0  0  0  0  0  0  0  0  0
    8.9486   13.0151  -36.3868 C   0  0  0  0  0  0  0  0  0  0  0  0
    9.4052   14.1142  -36.5734 O   0  0  0  0  0  0  0  0  0  0  0  0
    7.5468   12.5122  -36.7796 C   0  0  0  0  0  0  0  0  0  0  0  0
    6.6435   13.5921  -37.4375 C   0  0  0  0  0  0  0  0  0  0  0  0
    5.4979   13.0150  -36.5537 C   0  0  0  0  0  0  0  0  0  0  0  0
    6.5446   12.4533  -35.6750 N   0  0  0  0  0  0  0  0  0  0  0  0
   10.5258   12.7880  -35.6474 H   0  0  0  0  0  0  0  0  0  0  0  0
    7.6140   11.5884  -37.3395 H   0  0  0  0  0  0  0  0  0  0  0  0
    6.8981   14.6064  -37.1609 H   0  0  0  0  0  0  0  0  0  0  0  0
    6.4977   13.4549  -38.5001 H   0  0  0  0  0  0  0  0  0  0  0  0
    4.9264   12.2491  -37.0607 H   0  0  0  0  0  0  0  0  0  0  0  0
    4.8877   13.7719  -36.0817 H   0  0  0  0  0  0  0  0  0  0  0  0
    6.3551   11.5155  -35.3087 H   0  0  0  0  0  0  0  0  0  0  0  0
  1  2  1  0
  1  8  1  0
  2  3  2  0
  2  4  1  0
  4  5  1  0
  4  7  1  0
  4  9  1  0
  5  6  1  0
  5 10  1  0
  5 11  1  0
  6  7  1  0
  6 12  1  0
  6 13  1  0
  7 14  1  0
M  END
> <intraLJ>
-0.179    

> <intraEL>
2.370     

> <intraDihe>
12.551    

> <interLJ>
0.000     

> <interEJ>
0.000     

> <gridLJ>
-3.974    

> <gridEL>
0.000     

> <totalE>
10.768    

> <LGFE>
-3.974  

> <LE>
-0.568  

> <SMILES>
O=C(O)C1CCN1

> <atom.dprop.GFE>
-1.5 0 -1.4 -0.22 -0.14 -0.26 -0.44 0 0 0 0 0 0 0

> <atom.prop.CLASS>
MEOO NCLA GENA PRPC PRPC PRPC GEND NCLA NCLA NCLA NCLA NCLA NCLA NCLA

$$$$
