34
     RDKit          3D

 19 19  0  0  0  0  0  0  0  0999 V2000
  -25.2145   -1.3880  -16.8011 O   0  0  0  0  0  0  0  0  0  0  0  0
  -25.4135   -1.8889  -18.1019 C   0  0  0  0  0  0  0  0  0  0  0  0
  -24.7823   -3.2822  -18.1990 C   0  0  0  0  0  0  0  0  0  0  0  0
  -24.8673   -3.8307  -19.6334 C   0  0  0  0  0  0  0  0  0  0  0  0
  -24.2222   -2.8584  -20.6318 C   0  0  0  0  0  0  0  0  0  0  0  0
  -24.8529   -1.4610  -20.5332 C   0  0  0  0  0  0  0  0  0  0  0  0
  -24.7640   -0.9226  -19.0971 C   0  0  0  0  0  0  0  0  0  0  0  0
  -25.6195   -1.9901  -16.1733 H   0  0  0  0  0  0  0  0  0  0  0  0
  -26.4829   -1.9564  -18.3148 H   0  0  0  0  0  0  0  0  0  0  0  0
  -25.2990   -3.9638  -17.5227 H   0  0  0  0  0  0  0  0  0  0  0  0
  -23.7351   -3.2196  -17.9002 H   0  0  0  0  0  0  0  0  0  0  0  0
  -25.9154   -3.9801  -19.9023 H   0  0  0  0  0  0  0  0  0  0  0  0
  -24.3575   -4.7934  -19.6842 H   0  0  0  0  0  0  0  0  0  0  0  0
  -24.3473   -3.2430  -21.6456 H   0  0  0  0  0  0  0  0  0  0  0  0
  -23.1532   -2.7851  -20.4228 H   0  0  0  0  0  0  0  0  0  0  0  0
  -25.9007   -1.5137  -20.8368 H   0  0  0  0  0  0  0  0  0  0  0  0
  -24.3322   -0.7795  -21.2080 H   0  0  0  0  0  0  0  0  0  0  0  0
  -23.7161   -0.7840  -18.8253 H   0  0  0  0  0  0  0  0  0  0  0  0
  -25.2674    0.0427  -19.0371 H   0  0  0  0  0  0  0  0  0  0  0  0
  1  2  1  0
  1  8  1  0
  2  3  1  0
  2  7  1  0
  2  9  1  0
  3  4  1  0
  3 10  1  0
  3 11  1  0
  4  5  1  0
  4 12  1  0
  4 13  1  0
  5  6  1  0
  5 14  1  0
  5 15  1  0
  6  7  1  0
  6 16  1  0
  6 17  1  0
  7 18  1  0
  7 19  1  0
M  END
> <intraLJ>
-0.471    

> <intraEL>
-1.198    

> <intraDihe>
8.631     

> <interLJ>
0.000     

> <interEJ>
0.000     

> <gridLJ>
-2.753    

> <gridEL>
0.000     

> <totalE>
4.209     

> <LGFE>
-2.753  

> <LE>
-0.393  

> <SMILES>
OC1CCCCC1

> <atom.dprop.GFE>
-0.26 -0.4 -0.45 -0.43 -0.41 -0.38 -0.42 0 0 0 0 0 0 0 0 0 0 0 0

> <atom.prop.CLASS>
MEOO PRPC PRPC PRPC PRPC PRPC PRPC NCLA NCLA NCLA NCLA NCLA NCLA NCLA NCLA NCLA NCLA NCLA NCLA

$$$$
