78_1
     RDKit          3D

 13 12  0  0  0  0  0  0  0  0999 V2000
  -16.5880    7.2344  -13.7265 C   0  0  0  0  0  0  0  0  0  0  0  0
  -16.9138    8.7051  -14.0614 C   0  0  0  0  0  0  0  0  0  0  0  0
  -15.6220    9.3803  -14.4640 C   0  0  0  0  0  0  0  0  0  0  0  0
  -15.4910   10.0939  -15.4772 N   0  0  0  0  0  0  0  0  0  0  0  0
  -14.5329    9.2192  -13.6810 N   0  0  0  0  0  0  0  0  0  0  0  0
  -17.5068    6.7467  -13.4015 H   0  0  0  0  0  0  0  0  0  0  0  0
  -15.8506    7.2194  -12.9204 H   0  0  0  0  0  0  0  0  0  0  0  0
  -16.1920    6.7390  -14.6135 H   0  0  0  0  0  0  0  0  0  0  0  0
  -17.2908    9.1928  -13.1728 H   0  0  0  0  0  0  0  0  0  0  0  0
  -17.6085    8.7472  -14.8870 H   0  0  0  0  0  0  0  0  0  0  0  0
  -14.5606   10.4355  -15.5736 H   0  0  0  0  0  0  0  0  0  0  0  0
  -13.7773    9.9037  -13.7873 H   0  0  0  0  0  0  0  0  0  0  0  0
  -14.6920    8.8204  -12.7497 H   0  0  0  0  0  0  0  0  0  0  0  0
  1  2  1  0
  1  6  1  0
  1  7  1  0
  1  8  1  0
  2  3  1  0
  2  9  1  0
  2 10  1  0
  3  4  2  0
  3  5  1  0
  4 11  1  0
  5 12  1  0
  5 13  1  0
M  END
> <intraLJ>
1.986     

> <intraEL>
-9.532    

> <intraDihe>
7.088     

> <interLJ>
0.000     

> <interEJ>
0.000     

> <gridLJ>
-2.616    

> <gridEL>
0.000     

> <totalE>
-3.073    

> <LGFE>
-2.616  

> <LE>
-0.523  

> <SMILES>
CCC(=N)N

> <atom.dprop.GFE>
-0.4 -0.45 0 -0.93 -0.83 0 0 0 0 0 0 0 0

> <atom.prop.CLASS>
PRPC PRPC NCLA GENA GEND NCLA NCLA NCLA NCLA NCLA NCLA NCLA NCLA

$$$$
