23_2
     RDKit          3D

 10 10  0  0  0  0  0  0  0  0999 V2000
  -26.0066  -18.2712    4.9377 O   0  0  0  0  0  0  0  0  0  0  0  0
  -25.4036  -18.0396    6.0131 C   0  0  0  0  0  0  0  0  0  0  0  0
  -26.0455  -17.3513    7.0025 N   0  0  0  0  0  0  0  0  0  0  0  0
  -25.4150  -17.1113    8.1236 C   0  0  0  0  0  0  0  0  0  0  0  0
  -24.1122  -17.5440    8.3168 C   0  0  0  0  0  0  0  0  0  0  0  0
  -23.4931  -18.2387    7.2890 C   0  0  0  0  0  0  0  0  0  0  0  0
  -24.1199  -18.4816    6.1663 N   0  0  0  0  0  0  0  0  0  0  0  0
  -25.9252  -16.5770    8.8811 H   0  0  0  0  0  0  0  0  0  0  0  0
  -23.6040  -17.3489    9.2219 H   0  0  0  0  0  0  0  0  0  0  0  0
  -22.4994  -18.5870    7.3929 H   0  0  0  0  0  0  0  0  0  0  0  0
  1  2  1  0
  2  3  2  0
  2  7  1  0
  3  4  1  0
  4  5  2  0
  4  8  1  0
  5  6  1  0
  5  9  1  0
  6  7  2  0
  6 10  1  0
M  CHG  1   1  -1
M  END
> <intraLJ>
17.983    

> <intraEL>
-7.943    

> <intraDihe>
0.000     

> <interLJ>
0.000     

> <interEJ>
0.000     

> <gridLJ>
-2.022    

> <gridEL>
0.000     

> <totalE>
8.018     

> <LGFE>
-2.022  

> <LE>
-0.289  

> <SMILES>
[O-]c1ncccn1

> <atom.dprop.GFE>
0 -0.16 -0.7 -0.2 -0.18 -0.17 -0.61 0 0 0

> <atom.prop.CLASS>
NCLA GEHC GENA BENC BENC BENC GENA NCLA NCLA NCLA

$$$$
