50_1
     RDKit          3D

 12 11  0  0  1  0  0  0  0  0999 V2000
   -6.5710   12.1322   -8.3319 C   0  0  0  0  0  0  0  0  0  0  0  0
   -7.0596   10.6844   -8.3313 C   0  0  0  0  0  0  0  0  0  0  0  0
   -5.9108    9.8776   -8.6379 N   0  0  0  0  0  0  0  0  0  0  0  0
   -7.9743   10.4991   -9.4760 C   0  0  0  0  0  0  0  0  0  0  0  0
   -8.7122   10.3490  -10.4001 C   0  0  0  0  0  0  0  0  0  0  0  0
   -7.4268   12.7824   -8.1472 H   0  0  0  0  0  0  0  0  0  0  0  0
   -6.1163   12.3653   -9.2960 H   0  0  0  0  0  0  0  0  0  0  0  0
   -5.8391   12.2384   -7.5317 H   0  0  0  0  0  0  0  0  0  0  0  0
   -7.5243   10.4098   -7.3917 H   0  0  0  0  0  0  0  0  0  0  0  0
   -5.5684   10.1937   -9.5328 H   0  0  0  0  0  0  0  0  0  0  0  0
   -6.2397    8.9313   -8.7568 H   0  0  0  0  0  0  0  0  0  0  0  0
   -9.3549   10.2186  -11.2032 H   0  0  0  0  0  0  0  0  0  0  0  0
  1  2  1  0
  1  6  1  0
  1  7  1  0
  1  8  1  0
  2  3  1  0
  2  4  1  0
  2  9  1  0
  3 10  1  0
  3 11  1  0
  4  5  3  0
  5 12  1  0
M  END
> <intraLJ>
0.883     

> <intraEL>
-1.894    

> <intraDihe>
0.827     

> <interLJ>
0.000     

> <interEJ>
0.000     

> <gridLJ>
-2.984    

> <gridEL>
0.000     

> <totalE>
-3.168    

> <LGFE>
-2.984  

> <LE>
-0.597  

> <SMILES>
C#CC(C)N

> <atom.dprop.GFE>
-0.39 -0.55 -1.3 -0.43 -0.35 0 0 0 0 0 0 0

> <atom.prop.CLASS>
PRPC PRPC GEND PRPC PRPC NCLA NCLA NCLA NCLA NCLA NCLA NCLA

$$$$
