29_2
     RDKit          3D

 13 13  0  0  0  0  0  0  0  0999 V2000
  -34.8488   14.7138   24.8723 N   0  0  0  0  0  0  0  0  0  0  0  0
  -34.8079   15.9030   25.5884 C   0  0  0  0  0  0  0  0  0  0  0  0
  -34.4239   16.1153   26.8684 C   0  0  0  0  0  0  0  0  0  0  0  0
  -34.5312   17.7995   27.2724 S   0  0  0  0  0  0  0  0  0  0  0  0
  -35.0723   18.1400   25.6855 C   0  0  0  0  0  0  0  0  0  0  0  0
  -35.3686   19.3743   25.2363 N   0  0  0  0  0  0  0  0  0  0  0  0
  -35.1695   17.0477   24.9276 N   0  0  0  0  0  0  0  0  0  0  0  0
  -35.6417   14.6069   24.2215 H   0  0  0  0  0  0  0  0  0  0  0  0
  -34.7483   13.8824   25.4816 H   0  0  0  0  0  0  0  0  0  0  0  0
  -34.0921   15.3906   27.5682 H   0  0  0  0  0  0  0  0  0  0  0  0
  -35.6808   19.5609   24.2726 H   0  0  0  0  0  0  0  0  0  0  0  0
  -35.2635   20.1775   25.8805 H   0  0  0  0  0  0  0  0  0  0  0  0
  -35.4387   17.0638   23.9393 H   0  0  0  0  0  0  0  0  0  0  0  0
  1  2  1  0
  1  8  1  0
  1  9  1  0
  2  3  2  0
  2  7  1  0
  3  4  1  0
  3 10  1  0
  4  5  1  0
  5  6  2  0
  5  7  1  0
  6 11  1  0
  6 12  1  0
  7 13  1  0
M  CHG  1   6   1
M  END
> <intraLJ>
-0.730    

> <intraEL>
-5.242    

> <intraDihe>
2.059     

> <interLJ>
0.000     

> <interEJ>
0.000     

> <gridLJ>
-3.909    

> <gridEL>
0.000     

> <totalE>
-7.822    

> <LGFE>
-3.909  

> <LE>
-0.558  

> <SMILES>
Nc1csc(=[NH2+])[nH]1

> <atom.dprop.GFE>
-0.69 -0.11 -0.14 -0.062 -1.3 -1.6 0 0 0 0 0 0 0

> <atom.prop.CLASS>
GEND GEHC GEHC PRPC MAMC MAMN NCLA NCLA NCLA NCLA NCLA NCLA NCLA

$$$$
