22
     RDKit          3D

 12 12  0  0  0  0  0  0  0  0999 V2000
   23.4788    7.0288   -6.9095 O   0  0  0  0  0  0  0  0  0  0  0  0
   24.3590    6.7775   -8.0008 S   0  0  0  0  0  0  0  0  0  0  0  0
   24.6895    5.4372   -8.3518 O   0  0  0  0  0  0  0  0  0  0  0  0
   23.9223    7.7142   -9.4024 C   0  0  0  0  0  0  0  0  0  0  0  0
   25.2747    8.5939   -9.2348 C   0  0  0  0  0  0  0  0  0  0  0  0
   25.7768    7.7843   -7.9213 C   0  0  0  0  0  0  0  0  0  0  0  0
   23.0786    8.3880   -9.3419 H   0  0  0  0  0  0  0  0  0  0  0  0
   23.9485    7.2465  -10.3766 H   0  0  0  0  0  0  0  0  0  0  0  0
   25.0654    9.6332   -9.0207 H   0  0  0  0  0  0  0  0  0  0  0  0
   25.9485    8.4741  -10.0723 H   0  0  0  0  0  0  0  0  0  0  0  0
   26.7434    7.3516   -8.1461 H   0  0  0  0  0  0  0  0  0  0  0  0
   25.8741    8.4938   -7.1103 H   0  0  0  0  0  0  0  0  0  0  0  0
  1  2  2  0
  2  3  2  0
  2  4  1  0
  2  6  1  0
  4  5  1  0
  4  7  1  0
  4  8  1  0
  5  6  1  0
  5  9  1  0
  5 10  1  0
  6 11  1  0
  6 12  1  0
M  END
> <intraLJ>
-0.830    

> <intraEL>
0.015     

> <intraDihe>
20.344    

> <interLJ>
0.000     

> <interEJ>
0.000     

> <gridLJ>
-3.168    

> <gridEL>
0.000     

> <totalE>
16.361    

> <LGFE>
-3.168  

> <LE>
-0.528  

> <SMILES>
O=S1(=O)CCC1

> <atom.dprop.GFE>
-1.2 0 -0.85 -0.41 -0.34 -0.33 0 0 0 0 0 0

> <atom.prop.CLASS>
GENA NCLA GENA PRPC PRPC PRPC NCLA NCLA NCLA NCLA NCLA NCLA

$$$$
