13
     RDKit          3D

 13 12  0  0  0  0  0  0  0  0999 V2000
  -29.6959  -10.1268   27.3316 C   0  0  0  0  0  0  0  0  0  0  0  0
  -28.9455  -10.5034   26.0362 C   0  0  0  0  0  0  0  0  0  0  0  0
  -29.9155  -10.3480   24.8836 C   0  0  0  0  0  0  0  0  0  0  0  0
  -30.5101  -11.2901   24.3841 O   0  0  0  0  0  0  0  0  0  0  0  0
  -30.1469   -9.0999   24.4020 N   0  0  0  0  0  0  0  0  0  0  0  0
  -31.0522   -8.9092   23.3385 O   0  0  0  0  0  0  0  0  0  0  0  0
  -29.0146  -10.2582   28.1729 H   0  0  0  0  0  0  0  0  0  0  0  0
  -30.5569  -10.7899   27.4405 H   0  0  0  0  0  0  0  0  0  0  0  0
  -30.0242   -9.0872   27.2710 H   0  0  0  0  0  0  0  0  0  0  0  0
  -28.6491  -11.5421   26.0903 H   0  0  0  0  0  0  0  0  0  0  0  0
  -28.1090   -9.8326   25.8966 H   0  0  0  0  0  0  0  0  0  0  0  0
  -29.6838   -8.2648   24.7956 H   0  0  0  0  0  0  0  0  0  0  0  0
  -31.3842   -9.8165   23.1291 H   0  0  0  0  0  0  0  0  0  0  0  0
  1  2  1  0
  1  7  1  0
  1  8  1  0
  1  9  1  0
  2  3  1  0
  2 10  1  0
  2 11  1  0
  3  4  2  0
  3  5  1  0
  5  6  1  0
  5 12  1  0
  6 13  1  0
M  END
> <intraLJ>
0.043     

> <intraEL>
2.371     

> <intraDihe>
5.928     

> <interLJ>
0.000     

> <interEJ>
0.000     

> <gridLJ>
-3.078    

> <gridEL>
0.000     

> <totalE>
5.263     

> <LGFE>
-3.078  

> <LE>
-0.513  

> <SMILES>
CCC(=O)NO

> <atom.dprop.GFE>
-0.42 -0.47 0 -0.71 -0.77 -0.72 0 0 0 0 0 0 0

> <atom.prop.CLASS>
PRPC PRPC NCLA GENA GEND MEOO NCLA NCLA NCLA NCLA NCLA NCLA NCLA

$$$$
