78_2
     RDKit          3D

 14 13  0  0  0  0  0  0  0  0999 V2000
  -28.5390   13.3677   18.9513 C   0  0  0  0  0  0  0  0  0  0  0  0
  -27.1125   13.9692   18.9755 C   0  0  0  0  0  0  0  0  0  0  0  0
  -26.6302   14.1785   20.4043 C   0  0  0  0  0  0  0  0  0  0  0  0
  -26.1375   13.2027   21.0949 N   0  0  0  0  0  0  0  0  0  0  0  0
  -26.6805   15.3109   21.0307 N   0  0  0  0  0  0  0  0  0  0  0  0
  -28.8417   13.2765   17.9062 H   0  0  0  0  0  0  0  0  0  0  0  0
  -29.2302   14.0392   19.4659 H   0  0  0  0  0  0  0  0  0  0  0  0
  -28.5304   12.3749   19.4065 H   0  0  0  0  0  0  0  0  0  0  0  0
  -27.1418   14.9305   18.4803 H   0  0  0  0  0  0  0  0  0  0  0  0
  -26.4397   13.2774   18.4860 H   0  0  0  0  0  0  0  0  0  0  0  0
  -25.8103   13.3319   22.0633 H   0  0  0  0  0  0  0  0  0  0  0  0
  -26.0627   12.2581   20.6783 H   0  0  0  0  0  0  0  0  0  0  0  0
  -26.3486   15.4172   21.9998 H   0  0  0  0  0  0  0  0  0  0  0  0
  -27.0621   16.1428   20.5486 H   0  0  0  0  0  0  0  0  0  0  0  0
  1  2  1  0
  1  6  1  0
  1  7  1  0
  1  8  1  0
  2  3  1  0
  2  9  1  0
  2 10  1  0
  3  4  2  0
  3  5  1  0
  4 11  1  0
  4 12  1  0
  5 13  1  0
  5 14  1  0
M  CHG  1   4   1
M  END
> <intraLJ>
0.191     

> <intraEL>
-6.611    

> <intraDihe>
1.001     

> <interLJ>
0.000     

> <interEJ>
0.000     

> <gridLJ>
-2.075    

> <gridEL>
0.000     

> <totalE>
-7.495    

> <LGFE>
-2.075  

> <LE>
-0.415  

> <SMILES>
CCC(N)=[NH2+]

> <atom.dprop.GFE>
-0.44 -0.48 -1.2 0 0 0 0 0 0 0 0 0 0 0

> <atom.prop.CLASS>
PRPC PRPC MAMC NCLA NCLA NCLA NCLA NCLA NCLA NCLA NCLA NCLA NCLA NCLA

$$$$
