59_1
     RDKit          3D

 10  9  0  0  0  0  0  0  0  0999 V2000
   25.7398    1.5501  -19.5765 C   0  0  0  0  0  0  0  0  0  0  0  0
   24.5704    0.6542  -19.9230 C   0  0  0  0  0  0  0  0  0  0  0  0
   23.8982    0.2223  -19.0055 O   0  0  0  0  0  0  0  0  0  0  0  0
   24.2832    0.3372  -21.3374 C   0  0  0  0  0  0  0  0  0  0  0  0
   23.4623   -0.4762  -21.7161 O   0  0  0  0  0  0  0  0  0  0  0  0
   24.9055    0.9229  -22.3455 O   0  0  0  0  0  0  0  0  0  0  0  0
   25.5658    2.4980  -20.0662 H   0  0  0  0  0  0  0  0  0  0  0  0
   26.6291    1.0715  -19.9642 H   0  0  0  0  0  0  0  0  0  0  0  0
   25.7727    1.6520  -18.5007 H   0  0  0  0  0  0  0  0  0  0  0  0
   24.4818    0.4897  -23.1102 H   0  0  0  0  0  0  0  0  0  0  0  0
  1  2  1  0
  1  7  1  0
  1  8  1  0
  1  9  1  0
  2  3  2  0
  2  4  1  0
  4  5  2  0
  4  6  1  0
  6 10  1  0
M  END
> <intraLJ>
-0.399    

> <intraEL>
-0.002    

> <intraDihe>
2.132     

> <interLJ>
0.000     

> <interEJ>
0.000     

> <gridLJ>
-2.077    

> <gridEL>
0.000     

> <totalE>
-0.346    

> <LGFE>
-2.077  

> <LE>
-0.346  

> <SMILES>
CC(=O)C(=O)O

> <atom.dprop.GFE>
-0.22 0 -0.42 0 -0.67 -0.77 0 0 0 0

> <atom.prop.CLASS>
PRPC NCLA GENA NCLA GENA MEOO NCLA NCLA NCLA NCLA

$$$$
