16
     RDKit          3D

 10 10  0  0  0  0  0  0  0  0999 V2000
    7.2178   -6.8437    3.2804 N   0  0  0  0  0  0  0  0  0  0  0  0
    7.3110   -5.9388    2.6010 C   0  0  0  0  0  0  0  0  0  0  0  0
    7.4330   -4.7565    1.7133 C   0  0  0  0  0  0  0  0  0  0  0  0
    8.3957   -4.8942    0.5696 C   0  0  0  0  0  0  0  0  0  0  0  0
    8.7486   -4.0362    1.7620 C   0  0  0  0  0  0  0  0  0  0  0  0
    6.5259   -4.1854    1.5701 H   0  0  0  0  0  0  0  0  0  0  0  0
    8.1395   -4.3735   -0.3439 H   0  0  0  0  0  0  0  0  0  0  0  0
    8.9206   -5.8381    0.4786 H   0  0  0  0  0  0  0  0  0  0  0  0
    9.5004   -4.4273    2.4366 H   0  0  0  0  0  0  0  0  0  0  0  0
    8.7178   -2.9643    1.6145 H   0  0  0  0  0  0  0  0  0  0  0  0
  1  2  3  0
  2  3  1  0
  3  4  1  0
  3  5  1  0
  3  6  1  0
  4  5  1  0
  4  7  1  0
  4  8  1  0
  5  9  1  0
  5 10  1  0
M  END
> <intraLJ>
-0.168    

> <intraEL>
1.810     

> <intraDihe>
1.484     

> <interLJ>
0.000     

> <interEJ>
0.000     

> <gridLJ>
-2.717    

> <gridEL>
0.000     

> <totalE>
0.409     

> <LGFE>
-2.717  

> <LE>
-0.543  

> <SMILES>
N#CC1CC1

> <atom.dprop.GFE>
-1.2 0 -0.6 -0.43 -0.47 0 0 0 0 0

> <atom.prop.CLASS>
GENA NCLA PRPC PRPC PRPC NCLA NCLA NCLA NCLA NCLA

$$$$
