77
     RDKit          3D

 12 12  0  0  0  0  0  0  0  0999 V2000
   11.2870   -5.2270  -14.9007 N   0  0  0  0  0  0  0  0  0  0  0  0
   10.3133   -5.3672  -13.8945 C   0  0  0  0  0  0  0  0  0  0  0  0
    8.9758   -5.0650  -14.1469 C   0  0  0  0  0  0  0  0  0  0  0  0
    8.0761   -5.1864  -13.1808 N   0  0  0  0  0  0  0  0  0  0  0  0
    8.4658   -5.6064  -11.9741 C   0  0  0  0  0  0  0  0  0  0  0  0
    9.7306   -5.9174  -11.6798 N   0  0  0  0  0  0  0  0  0  0  0  0
   10.6600   -5.8087  -12.6187 C   0  0  0  0  0  0  0  0  0  0  0  0
   12.2585   -5.1255  -14.5679 H   0  0  0  0  0  0  0  0  0  0  0  0
   11.0410   -4.5884  -15.6728 H   0  0  0  0  0  0  0  0  0  0  0  0
    8.6638   -4.7382  -15.1051 H   0  0  0  0  0  0  0  0  0  0  0  0
    7.7328   -5.6976  -11.2118 H   0  0  0  0  0  0  0  0  0  0  0  0
   11.6621   -6.0623  -12.3852 H   0  0  0  0  0  0  0  0  0  0  0  0
  1  2  1  0
  1  8  1  0
  1  9  1  0
  2  3  2  0
  2  7  1  0
  3  4  1  0
  3 10  1  0
  4  5  2  0
  5  6  1  0
  5 11  1  0
  6  7  2  0
  7 12  1  0
M  END
> <intraLJ>
18.269    

> <intraEL>
2.751     

> <intraDihe>
1.494     

> <interLJ>
0.000     

> <interEJ>
0.000     

> <gridLJ>
-2.266    

> <gridEL>
0.000     

> <totalE>
20.249    

> <LGFE>
-2.266  

> <LE>
-0.324  

> <SMILES>
Nc1cncnc1

> <atom.dprop.GFE>
-0.7 -0.14 -0.092 -0.39 -0.19 -0.59 -0.16 0 0 0 0 0

> <atom.prop.CLASS>
GEND BENC BENC GENA GEHC GENA BENC NCLA NCLA NCLA NCLA NCLA

$$$$
