26_2
     RDKit          3D

 13 13  0  0  0  0  0  0  0  0999 V2000
   22.1709   -3.3033  -11.3895 O   0  0  0  0  0  0  0  0  0  0  0  0
   20.9179   -3.0661  -10.7012 C   0  0  0  0  0  0  0  0  0  0  0  0
   19.8390   -3.4987  -11.6679 C   0  0  0  0  0  0  0  0  0  0  0  0
   18.9541   -4.5213  -11.6352 C   0  0  0  0  0  0  0  0  0  0  0  0
   18.1948   -4.4378  -12.7975 C   0  0  0  0  0  0  0  0  0  0  0  0
   18.5672   -3.4252  -13.5303 N   0  0  0  0  0  0  0  0  0  0  0  0
   19.5819   -2.8508  -12.8263 N   0  0  0  0  0  0  0  0  0  0  0  0
   22.9182   -3.0452  -10.8236 H   0  0  0  0  0  0  0  0  0  0  0  0
   20.8048   -2.0076  -10.4986 H   0  0  0  0  0  0  0  0  0  0  0  0
   20.8630   -3.6836   -9.8138 H   0  0  0  0  0  0  0  0  0  0  0  0
   18.8559   -5.2494  -10.8737 H   0  0  0  0  0  0  0  0  0  0  0  0
   17.4110   -5.0971  -13.0726 H   0  0  0  0  0  0  0  0  0  0  0  0
   20.1052   -2.0094  -13.1375 H   0  0  0  0  0  0  0  0  0  0  0  0
  1  2  1  0
  1  8  1  0
  2  3  1  0
  2  9  1  0
  2 10  1  0
  3  4  2  0
  3  7  1  0
  4  5  1  0
  4 11  1  0
  5  6  2  0
  5 12  1  0
  6  7  1  0
  7 13  1  0
M  END
> <intraLJ>
0.088     

> <intraEL>
1.021     

> <intraDihe>
1.723     

> <interLJ>
0.000     

> <interEJ>
0.000     

> <gridLJ>
-2.707    

> <gridEL>
0.000     

> <totalE>
0.125     

> <LGFE>
-2.707  

> <LE>
-0.387  

> <SMILES>
OCc1ccn[nH]1

> <atom.dprop.GFE>
-0.27 -0.35 -0.25 -0.18 -0.081 -0.74 -0.84 0 0 0 0 0 0

> <atom.prop.CLASS>
MEOO PRPC GEHC GEHC GEHC GENA GEND NCLA NCLA NCLA NCLA NCLA NCLA

$$$$
