12
     RDKit          3D

 10 10  0  0  0  0  0  0  0  0999 V2000
  -30.0163   13.1338   15.2283 N   0  0  0  0  0  0  0  0  0  0  0  0
  -29.4404   13.4403   16.1686 C   0  0  0  0  0  0  0  0  0  0  0  0
  -28.7292   13.8481   17.3610 C   0  0  0  0  0  0  0  0  0  0  0  0
  -29.0677   14.8892   18.1676 C   0  0  0  0  0  0  0  0  0  0  0  0
  -28.1519   14.9139   19.1476 N   0  0  0  0  0  0  0  0  0  0  0  0
  -27.2823   13.9031   18.9264 C   0  0  0  0  0  0  0  0  0  0  0  0
  -27.6011   13.2384   17.8563 N   0  0  0  0  0  0  0  0  0  0  0  0
  -29.8673   15.5831   18.1086 H   0  0  0  0  0  0  0  0  0  0  0  0
  -28.1071   15.5823   19.9376 H   0  0  0  0  0  0  0  0  0  0  0  0
  -26.4665   13.7306   19.5826 H   0  0  0  0  0  0  0  0  0  0  0  0
  1  2  3  0
  2  3  1  0
  3  4  2  0
  3  7  1  0
  4  5  1  0
  4  8  1  0
  5  6  1  0
  5  9  1  0
  6  7  2  0
  6 10  1  0
M  END
> <intraLJ>
-0.793    

> <intraEL>
2.828     

> <intraDihe>
0.000     

> <interLJ>
0.000     

> <interEJ>
0.000     

> <gridLJ>
-2.416    

> <gridEL>
0.000     

> <totalE>
-0.381    

> <LGFE>
-2.416  

> <LE>
-0.345  

> <SMILES>
N#Cc1c[nH]cn1

> <atom.dprop.GFE>
-0.46 0 -0.2 -0.19 -0.6 -0.19 -0.79 0 0 0

> <atom.prop.CLASS>
GENA NCLA GEHC GEHC GEND GEHC GENA NCLA NCLA NCLA

$$$$
