76_1
     RDKit          3D

 22 21  0  0  0  0  0  0  0  0999 V2000
   18.5139   15.6619   -3.2238 C   0  0  0  0  0  0  0  0  0  0  0  0
   19.6003   15.4849   -4.2921 C   0  0  0  0  0  0  0  0  0  0  0  0
   18.9354   15.0467   -5.6062 C   0  0  0  0  0  0  0  0  0  0  0  0
   20.6451   14.4698   -3.7909 C   0  0  0  0  0  0  0  0  0  0  0  0
   21.8656   14.3422   -4.7182 C   0  0  0  0  0  0  0  0  0  0  0  0
   22.8693   13.3337   -4.1631 C   0  0  0  0  0  0  0  0  0  0  0  0
   23.4492   13.8490   -2.9100 N   0  0  0  0  0  0  0  0  0  0  0  0
   17.7862   16.4039   -3.5524 H   0  0  0  0  0  0  0  0  0  0  0  0
   18.9621   16.0078   -2.2904 H   0  0  0  0  0  0  0  0  0  0  0  0
   18.0017   14.7157   -3.0438 H   0  0  0  0  0  0  0  0  0  0  0  0
   20.0905   16.4490   -4.4500 H   0  0  0  0  0  0  0  0  0  0  0  0
   18.4903   14.0573   -5.4914 H   0  0  0  0  0  0  0  0  0  0  0  0
   19.6682   15.0208   -6.4120 H   0  0  0  0  0  0  0  0  0  0  0  0
   18.1555   15.7584   -5.8826 H   0  0  0  0  0  0  0  0  0  0  0  0
   20.1729   13.4911   -3.6804 H   0  0  0  0  0  0  0  0  0  0  0  0
   20.9934   14.7903   -2.8077 H   0  0  0  0  0  0  0  0  0  0  0  0
   22.3587   15.3114   -4.8099 H   0  0  0  0  0  0  0  0  0  0  0  0
   21.5503   14.0118   -5.7067 H   0  0  0  0  0  0  0  0  0  0  0  0
   23.6586   13.1655   -4.8997 H   0  0  0  0  0  0  0  0  0  0  0  0
   22.3605   12.3869   -3.9692 H   0  0  0  0  0  0  0  0  0  0  0  0
   23.9103   14.7338   -3.0765 H   0  0  0  0  0  0  0  0  0  0  0  0
   24.1130   13.1888   -2.5293 H   0  0  0  0  0  0  0  0  0  0  0  0
  1  2  1  0
  1  8  1  0
  1  9  1  0
  1 10  1  0
  2  3  1  0
  2  4  1  0
  2 11  1  0
  3 12  1  0
  3 13  1  0
  3 14  1  0
  4  5  1  0
  4 15  1  0
  4 16  1  0
  5  6  1  0
  5 17  1  0
  5 18  1  0
  6  7  1  0
  6 19  1  0
  6 20  1  0
  7 21  1  0
  7 22  1  0
M  END
> <intraLJ>
0.296     

> <intraEL>
-0.812    

> <intraDihe>
0.251     

> <interLJ>
0.000     

> <interEJ>
0.000     

> <gridLJ>
-3.914    

> <gridEL>
0.000     

> <totalE>
-4.179    

> <LGFE>
-3.914  

> <LE>
-0.559  

> <SMILES>
CC(C)CCCN

> <atom.dprop.GFE>
-0.45 -0.59 -0.67 -0.61 -0.63 -0.46 -0.51 0 0 0 0 0 0 0 0 0 0 0 0 0 0 0

> <atom.prop.CLASS>
PRPC PRPC PRPC PRPC PRPC PRPC GEND NCLA NCLA NCLA NCLA NCLA NCLA NCLA NCLA NCLA NCLA NCLA NCLA NCLA NCLA NCLA

$$$$
