45
     RDKit          3D

 13 13  0  0  0  0  0  0  0  0999 V2000
  -22.1461    2.2386   22.9869 O   0  0  0  0  0  0  0  0  0  0  0  0
  -21.0077    1.5426   22.7286 C   0  0  0  0  0  0  0  0  0  0  0  0
  -19.8876    1.7735   23.5202 C   0  0  0  0  0  0  0  0  0  0  0  0
  -18.7173    1.0664   23.2646 C   0  0  0  0  0  0  0  0  0  0  0  0
  -18.6753    0.1380   22.2241 C   0  0  0  0  0  0  0  0  0  0  0  0
  -19.8050   -0.0848   21.4370 C   0  0  0  0  0  0  0  0  0  0  0  0
  -20.9798    0.6187   21.6871 C   0  0  0  0  0  0  0  0  0  0  0  0
  -22.8500    1.9825   22.3628 H   0  0  0  0  0  0  0  0  0  0  0  0
  -19.9340    2.4818   24.3068 H   0  0  0  0  0  0  0  0  0  0  0  0
  -17.8561    1.2327   23.8611 H   0  0  0  0  0  0  0  0  0  0  0  0
  -17.7821   -0.3993   22.0315 H   0  0  0  0  0  0  0  0  0  0  0  0
  -19.7674   -0.7909   20.6476 H   0  0  0  0  0  0  0  0  0  0  0  0
  -21.8380    0.4514   21.0908 H   0  0  0  0  0  0  0  0  0  0  0  0
  1  2  1  0
  1  8  1  0
  2  3  2  0
  2  7  1  0
  3  4  1  0
  3  9  1  0
  4  5  2  0
  4 10  1  0
  5  6  1  0
  5 11  1  0
  6  7  2  0
  6 12  1  0
  7 13  1  0
M  END
> <intraLJ>
11.192    

> <intraEL>
-0.882    

> <intraDihe>
0.000     

> <interLJ>
0.000     

> <interEJ>
0.000     

> <gridLJ>
-2.629    

> <gridEL>
0.000     

> <totalE>
7.681     

> <LGFE>
-2.629  

> <LE>
-0.376  

> <SMILES>
Oc1ccccc1

> <atom.dprop.GFE>
-1.6 -0.12 -0.11 -0.25 -0.23 -0.17 -0.15 0 0 0 0 0 0

> <atom.prop.CLASS>
MEOO BENC BENC BENC BENC BENC BENC NCLA NCLA NCLA NCLA NCLA NCLA

$$$$
