25
     RDKit          3D

 12 12  0  0  0  0  0  0  0  0999 V2000
  -39.1673    7.5180   22.2348 O   0  0  0  0  0  0  0  0  0  0  0  0
  -39.2951    6.9425   21.1850 C   0  0  0  0  0  0  0  0  0  0  0  0
  -39.7094    5.5109   20.9538 C   0  0  0  0  0  0  0  0  0  0  0  0
  -39.6926    5.3963   19.4026 C   0  0  0  0  0  0  0  0  0  0  0  0
  -39.2608    6.7748   18.9713 C   0  0  0  0  0  0  0  0  0  0  0  0
  -39.0936    7.1855   17.8512 O   0  0  0  0  0  0  0  0  0  0  0  0
  -39.0622    7.5751   20.0277 N   0  0  0  0  0  0  0  0  0  0  0  0
  -40.7093    5.3696   21.3382 H   0  0  0  0  0  0  0  0  0  0  0  0
  -38.9673    4.8591   21.3936 H   0  0  0  0  0  0  0  0  0  0  0  0
  -40.6862    5.2071   19.0214 H   0  0  0  0  0  0  0  0  0  0  0  0
  -38.9492    4.6804   19.0787 H   0  0  0  0  0  0  0  0  0  0  0  0
  -38.7686    8.5541   19.9577 H   0  0  0  0  0  0  0  0  0  0  0  0
  1  2  2  0
  2  3  1  0
  2  7  1  0
  3  4  1  0
  3  8  1  0
  3  9  1  0
  4  5  1  0
  4 10  1  0
  4 11  1  0
  5  6  2  0
  5  7  1  0
  7 12  1  0
M  END
> <intraLJ>
-0.774    

> <intraEL>
-6.724    

> <intraDihe>
1.508     

> <interLJ>
0.000     

> <interEJ>
0.000     

> <gridLJ>
-3.724    

> <gridEL>
0.000     

> <totalE>
-9.714    

> <LGFE>
-3.724  

> <LE>
-0.532  

> <SMILES>
O=C1CCC(=O)N1

> <atom.dprop.GFE>
-0.7 -0.26 -0.56 -0.57 -0.19 -0.6 -0.84 0 0 0 0 0

> <atom.prop.CLASS>
GENA GEHC PRPC PRPC GEHC GENA GEND NCLA NCLA NCLA NCLA NCLA

$$$$
