54_1
     RDKit          3D

 11 10  0  0  0  0  0  0  0  0999 V2000
  -20.0838   -6.9047   27.0354 C   0  0  0  0  0  0  0  0  0  0  0  0
  -19.6149   -7.0585   25.5786 C   0  0  0  0  0  0  0  0  0  0  0  0
  -19.5379   -5.7269   24.8385 C   0  0  0  0  0  0  0  0  0  0  0  0
  -19.8030   -4.6367   25.3174 O   0  0  0  0  0  0  0  0  0  0  0  0
  -19.1362   -5.8048   23.5573 O   0  0  0  0  0  0  0  0  0  0  0  0
  -20.1288   -7.8839   27.5137 H   0  0  0  0  0  0  0  0  0  0  0  0
  -21.0750   -6.4489   27.0569 H   0  0  0  0  0  0  0  0  0  0  0  0
  -19.3851   -6.2690   27.5835 H   0  0  0  0  0  0  0  0  0  0  0  0
  -20.3115   -7.7022   25.0424 H   0  0  0  0  0  0  0  0  0  0  0  0
  -18.6311   -7.5257   25.5645 H   0  0  0  0  0  0  0  0  0  0  0  0
  -19.1349   -4.8964   23.2572 H   0  0  0  0  0  0  0  0  0  0  0  0
  1  2  1  0
  1  6  1  0
  1  7  1  0
  1  8  1  0
  2  3  1  0
  2  9  1  0
  2 10  1  0
  3  4  2  0
  3  5  1  0
  5 11  1  0
M  END
> <intraLJ>
-0.349    

> <intraEL>
-3.551    

> <intraDihe>
0.002     

> <interLJ>
0.000     

> <interEJ>
0.000     

> <gridLJ>
-3.315    

> <gridEL>
0.000     

> <totalE>
-7.212    

> <LGFE>
-3.315  

> <LE>
-0.663  

> <SMILES>
CCC(=O)O

> <atom.dprop.GFE>
-0.4 -0.33 0 -1.5 -1.1 0 0 0 0 0 0

> <atom.prop.CLASS>
PRPC PRPC NCLA GENA MEOO NCLA NCLA NCLA NCLA NCLA NCLA

$$$$
