7_1
     RDKit          3D

 14 14  0  0  1  0  0  0  0  0999 V2000
  -19.9259   -0.8407   27.4187 O   0  0  0  0  0  0  0  0  0  0  0  0
  -20.5654   -0.0234   28.2142 C   0  0  0  0  0  0  0  0  0  0  0  0
  -20.8073    1.0431   27.7087 O   0  0  0  0  0  0  0  0  0  0  0  0
  -20.9296   -0.4804   29.6392 C   0  0  0  0  0  0  0  0  0  0  0  0
  -21.8840   -1.7057   29.6911 C   0  0  0  0  0  0  0  0  0  0  0  0
  -22.6203   -0.9450   30.8339 C   0  0  0  0  0  0  0  0  0  0  0  0
  -22.0106    0.2965   30.3142 N   0  0  0  0  0  0  0  0  0  0  0  0
  -19.8193   -0.2856   26.6456 H   0  0  0  0  0  0  0  0  0  0  0  0
  -20.0404   -0.5842   30.2474 H   0  0  0  0  0  0  0  0  0  0  0  0
  -22.5046   -1.8174   28.8121 H   0  0  0  0  0  0  0  0  0  0  0  0
  -21.4047   -2.6230   30.0042 H   0  0  0  0  0  0  0  0  0  0  0  0
  -22.2510   -1.2097   31.8156 H   0  0  0  0  0  0  0  0  0  0  0  0
  -23.6977   -0.9727   30.7526 H   0  0  0  0  0  0  0  0  0  0  0  0
  -21.6902    0.9606   31.0255 H   0  0  0  0  0  0  0  0  0  0  0  0
  1  2  1  0
  1  8  1  0
  2  3  2  0
  2  4  1  0
  4  5  1  0
  4  7  1  0
  4  9  1  0
  5  6  1  0
  5 10  1  0
  5 11  1  0
  6  7  1  0
  6 12  1  0
  6 13  1  0
  7 14  1  0
M  END
> <intraLJ>
-0.427    

> <intraEL>
2.655     

> <intraDihe>
12.705    

> <interLJ>
0.000     

> <interEJ>
0.000     

> <gridLJ>
-2.515    

> <gridEL>
0.000     

> <totalE>
12.418    

> <LGFE>
-2.515  

> <LE>
-0.359  

> <SMILES>
O=C(O)C1CCN1

> <atom.dprop.GFE>
-0.5 0 -0.8 -0.3 -0.25 -0.2 -0.47 0 0 0 0 0 0 0

> <atom.prop.CLASS>
MEOO NCLA GENA PRPC PRPC PRPC GEND NCLA NCLA NCLA NCLA NCLA NCLA NCLA

$$$$
