66
     RDKit          3D

 11 11  0  0  0  0  0  0  0  0999 V2000
    4.6576   -3.9481   -5.8011 Br  0  0  0  0  0  0  0  0  0  0  0  0
    2.8152   -3.5488   -5.6352 C   0  0  0  0  0  0  0  0  0  0  0  0
    1.9150   -4.5353   -5.2570 C   0  0  0  0  0  0  0  0  0  0  0  0
    0.5744   -4.1911   -5.1492 C   0  0  0  0  0  0  0  0  0  0  0  0
    0.1741   -2.8848   -5.4210 C   0  0  0  0  0  0  0  0  0  0  0  0
    1.0505   -1.9468   -5.7842 N   0  0  0  0  0  0  0  0  0  0  0  0
    2.3450   -2.2606   -5.8916 C   0  0  0  0  0  0  0  0  0  0  0  0
    2.2439   -5.5232   -5.0553 H   0  0  0  0  0  0  0  0  0  0  0  0
   -0.1441   -4.9150   -4.8628 H   0  0  0  0  0  0  0  0  0  0  0  0
   -0.8471   -2.6094   -5.3431 H   0  0  0  0  0  0  0  0  0  0  0  0
    3.0201   -1.4964   -6.1818 H   0  0  0  0  0  0  0  0  0  0  0  0
  1  2  1  0
  2  3  2  0
  2  7  1  0
  3  4  1  0
  3  8  1  0
  4  5  2  0
  4  9  1  0
  5  6  1  0
  5 10  1  0
  6  7  2  0
  7 11  1  0
M  END
> <intraLJ>
11.953    

> <intraEL>
0.329     

> <intraDihe>
0.000     

> <interLJ>
0.000     

> <interEJ>
0.000     

> <gridLJ>
-3.314    

> <gridEL>
0.000     

> <totalE>
8.968     

> <LGFE>
-3.314  

> <LE>
-0.473  

> <SMILES>
Brc1cccnc1

> <atom.dprop.GFE>
-0.39 -0.22 -0.22 -0.26 -0.22 -1.8 -0.22 0 0 0 0

> <atom.prop.CLASS>
GENA BENC BENC BENC GEHC GENA GEHC NCLA NCLA NCLA NCLA

$$$$
