2_2
     RDKit          3D

 16 16  0  0  0  0  0  0  0  0999 V2000
  -13.4572    9.1208   18.1988 C   0  0  0  0  0  0  0  0  0  0  0  0
  -12.6121    8.5303   17.0530 C   0  0  0  0  0  0  0  0  0  0  0  0
  -12.9357    7.1532   16.8638 O   0  0  0  0  0  0  0  0  0  0  0  0
  -12.7519    6.3466   18.0277 C   0  0  0  0  0  0  0  0  0  0  0  0
  -13.5974    6.8966   19.1932 C   0  0  0  0  0  0  0  0  0  0  0  0
  -13.2950    8.3359   19.4593 N   0  0  0  0  0  0  0  0  0  0  0  0
  -14.5030    9.0929   17.8806 H   0  0  0  0  0  0  0  0  0  0  0  0
  -13.1752   10.1654   18.3517 H   0  0  0  0  0  0  0  0  0  0  0  0
  -11.5492    8.6368   17.2809 H   0  0  0  0  0  0  0  0  0  0  0  0
  -12.8220    9.0776   16.1316 H   0  0  0  0  0  0  0  0  0  0  0  0
  -11.6978    6.3299   18.3078 H   0  0  0  0  0  0  0  0  0  0  0  0
  -13.0651    5.3242   17.8072 H   0  0  0  0  0  0  0  0  0  0  0  0
  -13.4171    6.2903   20.0840 H   0  0  0  0  0  0  0  0  0  0  0  0
  -14.6489    6.7874   18.9132 H   0  0  0  0  0  0  0  0  0  0  0  0
  -13.9051    8.6969   20.1823 H   0  0  0  0  0  0  0  0  0  0  0  0
  -12.3357    8.4159   19.7729 H   0  0  0  0  0  0  0  0  0  0  0  0
  1  2  1  0
  1  6  1  0
  1  7  1  0
  1  8  1  0
  2  3  1  0
  2  9  1  0
  2 10  1  0
  3  4  1  0
  4  5  1  0
  4 11  1  0
  4 12  1  0
  5  6  1  0
  5 13  1  0
  5 14  1  0
  6 15  1  0
  6 16  1  0
M  CHG  1   6   1
M  END
> <intraLJ>
0.208     

> <intraEL>
4.487     

> <intraDihe>
1.850     

> <interLJ>
0.000     

> <interEJ>
0.000     

> <gridLJ>
-2.395    

> <gridEL>
0.000     

> <totalE>
4.151     

> <LGFE>
-2.395  

> <LE>
-0.399  

> <SMILES>
C1COCC[NH2+]1

> <atom.dprop.GFE>
-0.081 -0.14 -0.44 -0.16 0.036 -1.6 0 0 0 0 0 0 0 0 0 0

> <atom.prop.CLASS>
PRPC PRPC GENA PRPC PRPC MAMN NCLA NCLA NCLA NCLA NCLA NCLA NCLA NCLA NCLA NCLA

$$$$
