28_1
     RDKit          3D

  9  9  0  0  0  0  0  0  0  0999 V2000
    2.6434    0.7761  -36.7263 C   0  0  0  0  0  0  0  0  0  0  0  0
    2.2038    0.7228  -38.0042 C   0  0  0  0  0  0  0  0  0  0  0  0
    2.9797   -0.1893  -38.6144 N   0  0  0  0  0  0  0  0  0  0  0  0
    3.8581   -0.6581  -37.6999 C   0  0  0  0  0  0  0  0  0  0  0  0
    3.6783   -0.0913  -36.5439 N   0  0  0  0  0  0  0  0  0  0  0  0
    2.2519    1.3977  -35.9605 H   0  0  0  0  0  0  0  0  0  0  0  0
    1.4278    1.2491  -38.4965 H   0  0  0  0  0  0  0  0  0  0  0  0
    2.9249   -0.4874  -39.6022 H   0  0  0  0  0  0  0  0  0  0  0  0
    4.5756   -1.3959  -37.9586 H   0  0  0  0  0  0  0  0  0  0  0  0
  1  2  2  0
  1  5  1  0
  1  6  1  0
  2  3  1  0
  2  7  1  0
  3  4  1  0
  3  8  1  0
  4  5  2  0
  4  9  1  0
M  END
> <intraLJ>
-0.307    

> <intraEL>
-0.294    

> <intraDihe>
0.000     

> <interLJ>
0.000     

> <interEJ>
0.000     

> <gridLJ>
-2.176    

> <gridEL>
0.000     

> <totalE>
-2.778    

> <LGFE>
-2.176  

> <LE>
-0.435  

> <SMILES>
c1c[nH]cn1

> <atom.dprop.GFE>
-0.19 -0.19 -0.9 -0.26 -0.62 0 0 0 0

> <atom.prop.CLASS>
GEHC GEHC GEND GEHC GENA NCLA NCLA NCLA NCLA

$$$$
