40_1
     RDKit          3D

 11 11  0  0  0  0  0  0  0  0999 V2000
   20.3038   -5.9229  -10.0623 O   0  0  0  0  0  0  0  0  0  0  0  0
   19.2104   -5.5508   -9.3332 C   0  0  0  0  0  0  0  0  0  0  0  0
   18.3006   -6.5275   -8.9549 C   0  0  0  0  0  0  0  0  0  0  0  0
   17.2030   -6.1249   -8.2187 C   0  0  0  0  0  0  0  0  0  0  0  0
   17.0243   -4.8350   -7.8812 N   0  0  0  0  0  0  0  0  0  0  0  0
   17.9023   -3.9021   -8.2472 N   0  0  0  0  0  0  0  0  0  0  0  0
   18.9865   -4.2317   -8.9619 C   0  0  0  0  0  0  0  0  0  0  0  0
   20.8876   -5.1712  -10.2824 H   0  0  0  0  0  0  0  0  0  0  0  0
   18.4478   -7.5406   -9.2244 H   0  0  0  0  0  0  0  0  0  0  0  0
   16.4732   -6.8255   -7.9013 H   0  0  0  0  0  0  0  0  0  0  0  0
   19.6592   -3.4611   -9.2332 H   0  0  0  0  0  0  0  0  0  0  0  0
  1  2  1  0
  1  8  1  0
  2  3  2  0
  2  7  1  0
  3  4  1  0
  3  9  1  0
  4  5  2  0
  4 10  1  0
  5  6  1  0
  6  7  2  0
  7 11  1  0
M  END
> <intraLJ>
16.086    

> <intraEL>
2.571     

> <intraDihe>
0.000     

> <interLJ>
0.000     

> <interEJ>
0.000     

> <gridLJ>
-2.427    

> <gridEL>
0.000     

> <totalE>
16.231    

> <LGFE>
-2.427  

> <LE>
-0.347  

> <SMILES>
Oc1ccnnc1

> <atom.dprop.GFE>
-0.067 -0.065 -0.033 -0.028 -1.1 -1.1 -0.094 0 0 0 0

> <atom.prop.CLASS>
MEOO BENC BENC BENC GENA GENA BENC NCLA NCLA NCLA NCLA

$$$$
