61_2
     RDKit          3D

 17 17  0  0  0  0  0  0  0  0999 V2000
    4.7505   -0.5873  -11.6012 C   0  0  0  0  0  0  0  0  0  0  0  0
    3.6517   -1.1565  -12.5247 C   0  0  0  0  0  0  0  0  0  0  0  0
    2.3539   -0.4340  -12.3581 N   0  0  0  0  0  0  0  0  0  0  0  0
    1.9242   -0.4771  -10.9259 C   0  0  0  0  0  0  0  0  0  0  0  0
    3.0031    0.0991   -9.9840 C   0  0  0  0  0  0  0  0  0  0  0  0
    4.3127   -0.5768  -10.1800 N   0  0  0  0  0  0  0  0  0  0  0  0
    4.9920    0.4293  -11.9208 H   0  0  0  0  0  0  0  0  0  0  0  0
    5.6520   -1.1967  -11.7020 H   0  0  0  0  0  0  0  0  0  0  0  0
    3.5206   -2.2111  -12.2663 H   0  0  0  0  0  0  0  0  0  0  0  0
    3.9949   -1.1001  -13.5614 H   0  0  0  0  0  0  0  0  0  0  0  0
    1.6450   -0.8519  -12.9470 H   0  0  0  0  0  0  0  0  0  0  0  0
    2.4826    0.5311  -12.6288 H   0  0  0  0  0  0  0  0  0  0  0  0
    1.7478   -1.5134  -10.6276 H   0  0  0  0  0  0  0  0  0  0  0  0
    0.9955    0.0812  -10.7848 H   0  0  0  0  0  0  0  0  0  0  0  0
    2.6766   -0.0296   -8.9488 H   0  0  0  0  0  0  0  0  0  0  0  0
    3.1082    1.1694  -10.1764 H   0  0  0  0  0  0  0  0  0  0  0  0
    5.0317   -0.1917   -9.5678 H   0  0  0  0  0  0  0  0  0  0  0  0
  1  2  1  0
  1  6  1  0
  1  7  1  0
  1  8  1  0
  2  3  1  0
  2  9  1  0
  2 10  1  0
  3  4  1  0
  3 11  1  0
  3 12  1  0
  4  5  1  0
  4 13  1  0
  4 14  1  0
  5  6  1  0
  5 15  1  0
  5 16  1  0
  6 17  1  0
M  CHG  1   3   1
M  END
> <intraLJ>
1.222     

> <intraEL>
7.977     

> <intraDihe>
5.373     

> <interLJ>
0.000     

> <interEJ>
0.000     

> <gridLJ>
-2.591    

> <gridEL>
0.000     

> <totalE>
11.982    

> <LGFE>
-2.591  

> <LE>
-0.432  

> <SMILES>
C1C[NH2+]CCN1

> <atom.dprop.GFE>
-0.27 -0.069 -1 -0.18 -0.16 -0.89 0 0 0 0 0 0 0 0 0 0 0

> <atom.prop.CLASS>
PRPC PRPC MAMN PRPC PRPC GEND NCLA NCLA NCLA NCLA NCLA NCLA NCLA NCLA NCLA NCLA NCLA

$$$$
