59_1
     RDKit          3D

 10  9  0  0  0  0  0  0  0  0999 V2000
   -5.7717   10.0757  -10.6044 C   0  0  0  0  0  0  0  0  0  0  0  0
   -6.2578   10.8794   -9.4179 C   0  0  0  0  0  0  0  0  0  0  0  0
   -6.9919   11.8243   -9.6380 O   0  0  0  0  0  0  0  0  0  0  0  0
   -5.8366   10.5004   -8.0531 C   0  0  0  0  0  0  0  0  0  0  0  0
   -6.0882   11.1333   -7.0455 O   0  0  0  0  0  0  0  0  0  0  0  0
   -5.1322    9.4125   -7.7949 O   0  0  0  0  0  0  0  0  0  0  0  0
   -6.1124    9.0603  -10.4573 H   0  0  0  0  0  0  0  0  0  0  0  0
   -4.6912   10.1263  -10.5979 H   0  0  0  0  0  0  0  0  0  0  0  0
   -6.1911   10.5163  -11.4981 H   0  0  0  0  0  0  0  0  0  0  0  0
   -5.0363    9.4716   -6.8257 H   0  0  0  0  0  0  0  0  0  0  0  0
  1  2  1  0
  1  7  1  0
  1  8  1  0
  1  9  1  0
  2  3  2  0
  2  4  1  0
  4  5  2  0
  4  6  1  0
  6 10  1  0
M  END
> <intraLJ>
-0.395    

> <intraEL>
0.000     

> <intraDihe>
2.126     

> <interLJ>
0.000     

> <interEJ>
0.000     

> <gridLJ>
-2.777    

> <gridEL>
0.000     

> <totalE>
-1.047    

> <LGFE>
-2.777  

> <LE>
-0.463  

> <SMILES>
CC(=O)C(=O)O

> <atom.dprop.GFE>
-0.37 0 -0.68 0 -0.79 -0.94 0 0 0 0

> <atom.prop.CLASS>
PRPC NCLA GENA NCLA GENA MEOO NCLA NCLA NCLA NCLA

$$$$
