17_1
     RDKit          3D

 15 15  0  0  0  0  0  0  0  0999 V2000
   22.0866    7.1709   -8.5505 N   0  0  0  0  0  0  0  0  0  0  0  0
   21.5706    6.6543   -7.4266 C   0  0  0  0  0  0  0  0  0  0  0  0
   22.3087    5.9774   -6.7440 O   0  0  0  0  0  0  0  0  0  0  0  0
   20.0843    6.9629   -7.1126 C   0  0  0  0  0  0  0  0  0  0  0  0
   19.3926    7.9025   -8.0017 N   0  0  0  0  0  0  0  0  0  0  0  0
   19.6378    6.9823   -5.6877 C   0  0  0  0  0  0  0  0  0  0  0  0
   19.2470    5.8365   -6.6040 C   0  0  0  0  0  0  0  0  0  0  0  0
   23.0458    6.9717   -8.7699 H   0  0  0  0  0  0  0  0  0  0  0  0
   21.4931    7.7390   -9.1309 H   0  0  0  0  0  0  0  0  0  0  0  0
   19.7911    8.8340   -7.8525 H   0  0  0  0  0  0  0  0  0  0  0  0
   18.4127    7.9537   -7.7114 H   0  0  0  0  0  0  0  0  0  0  0  0
   18.8585    7.6839   -5.4241 H   0  0  0  0  0  0  0  0  0  0  0  0
   20.3905    6.7642   -4.9405 H   0  0  0  0  0  0  0  0  0  0  0  0
   19.7545    4.8957   -6.4387 H   0  0  0  0  0  0  0  0  0  0  0  0
   18.2200    5.8020   -6.9401 H   0  0  0  0  0  0  0  0  0  0  0  0
  1  2  1  0
  1  8  1  0
  1  9  1  0
  2  3  2  0
  2  4  1  0
  4  5  1  0
  4  6  1  0
  4  7  1  0
  5 10  1  0
  5 11  1  0
  6  7  1  0
  6 12  1  0
  6 13  1  0
  7 14  1  0
  7 15  1  0
M  END
> <intraLJ>
3.002     

> <intraEL>
0.468     

> <intraDihe>
8.481     

> <interLJ>
0.000     

> <interEJ>
0.000     

> <gridLJ>
-4.400    

> <gridEL>
0.000     

> <totalE>
7.551     

> <LGFE>
-4.400  

> <LE>
-0.629  

> <SMILES>
NC(=O)C1(N)CC1

> <atom.dprop.GFE>
-1.3 0 -1.1 -0.37 -0.83 -0.47 -0.41 0 0 0 0 0 0 0 0

> <atom.prop.CLASS>
GEND NCLA GENA PRPC GEND PRPC PRPC NCLA NCLA NCLA NCLA NCLA NCLA NCLA NCLA

$$$$
