26_1
     RDKit          3D

 13 13  0  0  0  0  0  0  0  0999 V2000
  -29.4264   -2.0971    4.0542 O   0  0  0  0  0  0  0  0  0  0  0  0
  -30.0652   -0.8167    4.1694 C   0  0  0  0  0  0  0  0  0  0  0  0
  -28.9498    0.1898    3.9143 C   0  0  0  0  0  0  0  0  0  0  0  0
  -28.3932    1.0341    4.8694 C   0  0  0  0  0  0  0  0  0  0  0  0
  -27.4434    1.7645    4.2448 C   0  0  0  0  0  0  0  0  0  0  0  0
  -27.4515    1.3509    2.9612 N   0  0  0  0  0  0  0  0  0  0  0  0
  -28.3777    0.3797    2.7456 N   0  0  0  0  0  0  0  0  0  0  0  0
  -28.4873   -1.8882    3.8476 H   0  0  0  0  0  0  0  0  0  0  0  0
  -30.4405   -0.6867    5.1749 H   0  0  0  0  0  0  0  0  0  0  0  0
  -30.8196   -0.7160    3.4007 H   0  0  0  0  0  0  0  0  0  0  0  0
  -28.6599    1.0974    5.8932 H   0  0  0  0  0  0  0  0  0  0  0  0
  -26.7861    2.5168    4.5974 H   0  0  0  0  0  0  0  0  0  0  0  0
  -26.8341    1.7165    2.2110 H   0  0  0  0  0  0  0  0  0  0  0  0
  1  2  1  0
  1  8  1  0
  2  3  1  0
  2  9  1  0
  2 10  1  0
  3  4  1  0
  3  7  2  0
  4  5  2  0
  4 11  1  0
  5  6  1  0
  5 12  1  0
  6  7  1  0
  6 13  1  0
M  END
> <intraLJ>
0.273     

> <intraEL>
0.186     

> <intraDihe>
6.127     

> <interLJ>
0.000     

> <interEJ>
0.000     

> <gridLJ>
-2.171    

> <gridEL>
0.000     

> <totalE>
4.415     

> <LGFE>
-2.171  

> <LE>
-0.310  

> <SMILES>
OCc1cc[nH]n1

> <atom.dprop.GFE>
-0.36 -0.3 -0.18 -0.23 -0.22 -0.4 -0.47 0 0 0 0 0 0

> <atom.prop.CLASS>
MEOO PRPC GEHC GEHC GEHC GEND GENA NCLA NCLA NCLA NCLA NCLA NCLA

$$$$
