40_1
     RDKit          3D

 11 11  0  0  0  0  0  0  0  0999 V2000
  -30.3049   13.5721   15.2784 O   0  0  0  0  0  0  0  0  0  0  0  0
  -29.3834   13.7467   16.2714 C   0  0  0  0  0  0  0  0  0  0  0  0
  -29.5824   14.7669   17.1902 C   0  0  0  0  0  0  0  0  0  0  0  0
  -28.6355   14.9227   18.1842 C   0  0  0  0  0  0  0  0  0  0  0  0
  -27.5621   14.1151   18.2581 N   0  0  0  0  0  0  0  0  0  0  0  0
  -27.3774   13.1368   17.3727 N   0  0  0  0  0  0  0  0  0  0  0  0
  -28.2617   12.9364   16.3863 C   0  0  0  0  0  0  0  0  0  0  0  0
  -30.0834   12.8323   14.6801 H   0  0  0  0  0  0  0  0  0  0  0  0
  -30.4294   15.3986   17.1257 H   0  0  0  0  0  0  0  0  0  0  0  0
  -28.7329   15.6850   18.9147 H   0  0  0  0  0  0  0  0  0  0  0  0
  -28.0782   12.1492   15.7032 H   0  0  0  0  0  0  0  0  0  0  0  0
  1  2  1  0
  1  8  1  0
  2  3  2  0
  2  7  1  0
  3  4  1  0
  3  9  1  0
  4  5  2  0
  4 10  1  0
  5  6  1  0
  6  7  2  0
  7 11  1  0
M  END
> <intraLJ>
16.086    

> <intraEL>
2.571     

> <intraDihe>
0.000     

> <interLJ>
0.000     

> <interEJ>
0.000     

> <gridLJ>
-2.762    

> <gridEL>
0.000     

> <totalE>
15.896    

> <LGFE>
-2.762  

> <LE>
-0.395  

> <SMILES>
Oc1ccnnc1

> <atom.dprop.GFE>
-0.51 -0.13 -0.17 -0.22 -0.79 -0.79 -0.16 0 0 0 0

> <atom.prop.CLASS>
MEOO BENC BENC BENC GENA GENA BENC NCLA NCLA NCLA NCLA

$$$$
