30_1
     RDKit          3D

 15 15  0  0  1  0  0  0  0  0999 V2000
  -14.3248    8.5902  -16.4713 N   0  0  0  0  0  0  0  0  0  0  0  0
  -13.1773    7.7772  -16.9564 C   0  0  0  0  0  0  0  0  0  0  0  0
  -12.1104    8.6852  -17.5842 C   0  0  0  0  0  0  0  0  0  0  0  0
  -11.4730    7.7872  -18.6568 C   0  0  0  0  0  0  0  0  0  0  0  0
  -12.5384    6.8796  -19.0296 N   0  0  0  0  0  0  0  0  0  0  0  0
  -13.4810    6.8009  -18.1080 C   0  0  0  0  0  0  0  0  0  0  0  0
  -14.4545    6.0601  -18.1754 O   0  0  0  0  0  0  0  0  0  0  0  0
  -14.1730    8.8822  -15.5166 H   0  0  0  0  0  0  0  0  0  0  0  0
  -15.1590    8.0149  -16.5251 H   0  0  0  0  0  0  0  0  0  0  0  0
  -12.7219    7.1882  -16.1582 H   0  0  0  0  0  0  0  0  0  0  0  0
  -12.5967    9.5316  -18.0704 H   0  0  0  0  0  0  0  0  0  0  0  0
  -11.3839    9.0274  -16.8488 H   0  0  0  0  0  0  0  0  0  0  0  0
  -10.6360    7.2270  -18.2332 H   0  0  0  0  0  0  0  0  0  0  0  0
  -11.1360    8.3838  -19.5081 H   0  0  0  0  0  0  0  0  0  0  0  0
  -12.5692    6.3308  -19.8747 H   0  0  0  0  0  0  0  0  0  0  0  0
  1  2  1  0
  1  8  1  0
  1  9  1  0
  2  3  1  0
  2  6  1  0
  2 10  1  0
  3  4  1  0
  3 11  1  0
  3 12  1  0
  4  5  1  0
  4 13  1  0
  4 14  1  0
  5  6  1  0
  5 15  1  0
  6  7  2  0
M  END
> <intraLJ>
0.264     

> <intraEL>
2.285     

> <intraDihe>
8.139     

> <interLJ>
0.000     

> <interEJ>
0.000     

> <gridLJ>
-2.329    

> <gridEL>
0.000     

> <totalE>
8.360     

> <LGFE>
-2.329  

> <LE>
-0.333  

> <SMILES>
NC1CCNC1=O

> <atom.dprop.GFE>
-0.46 -0.18 -0.05 -0.063 -0.39 -0.17 -1 0 0 0 0 0 0 0 0

> <atom.prop.CLASS>
GEND PRPC PRPC PRPC GEND GEHC GENA NCLA NCLA NCLA NCLA NCLA NCLA NCLA NCLA

$$$$
