32
     RDKit          3D

 17 16  0  0  0  0  0  0  0  0999 V2000
  -21.2688   -7.9699   27.8171 C   0  0  0  0  0  0  0  0  0  0  0  0
  -21.1630   -7.4778   26.3757 C   0  0  0  0  0  0  0  0  0  0  0  0
  -20.8064   -8.6264   25.4338 C   0  0  0  0  0  0  0  0  0  0  0  0
  -20.0518   -6.5471   26.3465 N   0  0  0  0  0  0  0  0  0  0  0  0
  -20.0237   -5.3878   25.6630 C   0  0  0  0  0  0  0  0  0  0  0  0
  -21.0381   -4.8942   25.2157 O   0  0  0  0  0  0  0  0  0  0  0  0
  -18.8380   -4.8047   25.4792 N   0  0  0  0  0  0  0  0  0  0  0  0
  -22.0780   -8.6949   27.8986 H   0  0  0  0  0  0  0  0  0  0  0  0
  -21.4822   -7.1265   28.4750 H   0  0  0  0  0  0  0  0  0  0  0  0
  -20.3358   -8.4397   28.1290 H   0  0  0  0  0  0  0  0  0  0  0  0
  -22.1151   -7.0367   26.0765 H   0  0  0  0  0  0  0  0  0  0  0  0
  -19.8639   -9.0852   25.7328 H   0  0  0  0  0  0  0  0  0  0  0  0
  -20.7097   -8.2470   24.4163 H   0  0  0  0  0  0  0  0  0  0  0  0
  -21.5945   -9.3781   25.4560 H   0  0  0  0  0  0  0  0  0  0  0  0
  -19.1171   -6.9514   26.4703 H   0  0  0  0  0  0  0  0  0  0  0  0
  -18.8328   -4.0455   24.7893 H   0  0  0  0  0  0  0  0  0  0  0  0
  -18.0090   -5.3904   25.5878 H   0  0  0  0  0  0  0  0  0  0  0  0
  1  2  1  0
  1  8  1  0
  1  9  1  0
  1 10  1  0
  2  3  1  0
  2  4  1  0
  2 11  1  0
  3 12  1  0
  3 13  1  0
  3 14  1  0
  4  5  1  0
  4 15  1  0
  5  6  2  0
  5  7  1  0
  7 16  1  0
  7 17  1  0
M  END
> <intraLJ>
-0.717    

> <intraEL>
-9.458    

> <intraDihe>
5.563     

> <interLJ>
0.000     

> <interEJ>
0.000     

> <gridLJ>
-4.181    

> <gridEL>
0.000     

> <totalE>
-8.793    

> <LGFE>
-4.181  

> <LE>
-0.597  

> <SMILES>
CC(C)NC(N)=O

> <atom.dprop.GFE>
-0.42 -0.37 -0.31 -0.58 0 -1.5 -1 0 0 0 0 0 0 0 0 0 0

> <atom.prop.CLASS>
PRPC PRPC PRPC GEND NCLA GENA GEND NCLA NCLA NCLA NCLA NCLA NCLA NCLA NCLA NCLA NCLA

$$$$
