56
     RDKit          3D

 13 12  0  0  0  0  0  0  0  0999 V2000
   11.1895   -3.1352    8.2310 C   0  0  0  0  0  0  0  0  0  0  0  0
   11.5414   -3.9707    7.0285 C   0  0  0  0  0  0  0  0  0  0  0  0
   10.8176   -4.8604    6.6398 O   0  0  0  0  0  0  0  0  0  0  0  0
   12.7191   -3.6752    6.3946 N   0  0  0  0  0  0  0  0  0  0  0  0
   13.2716   -4.2643    5.2964 C   0  0  0  0  0  0  0  0  0  0  0  0
   12.6894   -5.1889    4.7690 O   0  0  0  0  0  0  0  0  0  0  0  0
   14.4374   -3.8216    4.8205 N   0  0  0  0  0  0  0  0  0  0  0  0
   11.9716   -2.4112    8.4046 H   0  0  0  0  0  0  0  0  0  0  0  0
   11.0889   -3.8213    9.0592 H   0  0  0  0  0  0  0  0  0  0  0  0
   10.2453   -2.6592    8.0050 H   0  0  0  0  0  0  0  0  0  0  0  0
   13.2895   -2.9146    6.7691 H   0  0  0  0  0  0  0  0  0  0  0  0
   14.8487   -4.2738    3.9989 H   0  0  0  0  0  0  0  0  0  0  0  0
   14.8965   -3.0329    5.3075 H   0  0  0  0  0  0  0  0  0  0  0  0
  1  2  1  0
  1  8  1  0
  1  9  1  0
  1 10  1  0
  2  3  2  0
  2  4  1  0
  4  5  1  0
  4 11  1  0
  5  6  2  0
  5  7  1  0
  7 12  1  0
  7 13  1  0
M  END
> <intraLJ>
1.001     

> <intraEL>
-10.160   

> <intraDihe>
0.001     

> <interLJ>
0.000     

> <interEJ>
0.000     

> <gridLJ>
-2.340    

> <gridEL>
0.000     

> <totalE>
-11.499   

> <LGFE>
-2.340  

> <LE>
-0.334  

> <SMILES>
CC(=O)NC(N)=O

> <atom.dprop.GFE>
-0.25 0 -0.62 -0.46 0 -0.56 -0.46 0 0 0 0 0 0

> <atom.prop.CLASS>
PRPC NCLA GENA GEND NCLA GENA GEND NCLA NCLA NCLA NCLA NCLA NCLA

$$$$
