35_1
     RDKit          3D

 10 10  0  0  0  0  0  0  0  0999 V2000
  -19.5518   -1.9479   24.3620 N   0  0  0  0  0  0  0  0  0  0  0  0
  -19.3772   -3.2320   24.7653 C   0  0  0  0  0  0  0  0  0  0  0  0
  -19.9813   -4.2530   24.1473 N   0  0  0  0  0  0  0  0  0  0  0  0
  -19.5576   -5.2661   24.8166 C   0  0  0  0  0  0  0  0  0  0  0  0
  -18.7320   -4.8462   25.7805 N   0  0  0  0  0  0  0  0  0  0  0  0
  -18.6003   -3.5107   25.7472 N   0  0  0  0  0  0  0  0  0  0  0  0
  -18.7145   -1.4228   24.6279 H   0  0  0  0  0  0  0  0  0  0  0  0
  -19.7448   -1.9530   23.3562 H   0  0  0  0  0  0  0  0  0  0  0  0
  -19.7814   -6.2937   24.6838 H   0  0  0  0  0  0  0  0  0  0  0  0
  -18.2551   -5.4620   26.4618 H   0  0  0  0  0  0  0  0  0  0  0  0
  1  2  1  0
  1  7  1  0
  1  8  1  0
  2  3  1  0
  2  6  2  0
  3  4  2  0
  4  5  1  0
  4  9  1  0
  5  6  1  0
  5 10  1  0
M  END
> <intraLJ>
0.124     

> <intraEL>
-9.860    

> <intraDihe>
2.848     

> <interLJ>
0.000     

> <interEJ>
0.000     

> <gridLJ>
-4.869    

> <gridEL>
0.000     

> <totalE>
-11.757   

> <LGFE>
-4.869  

> <LE>
-0.811  

> <SMILES>
Nc1nc[nH]n1

> <atom.dprop.GFE>
-1.1 -0.19 -1.6 -0.18 -1 -0.78 0 0 0 0

> <atom.prop.CLASS>
GEND GEHC GENA GEHC GEND GENA NCLA NCLA NCLA NCLA

$$$$
