48_2
     RDKit          3D

 18 17  0  0  1  0  0  0  0  0999 V2000
  -17.0616    0.5540   22.0381 C   0  0  0  0  0  0  0  0  0  0  0  0
  -15.6290    1.0619   21.7918 C   0  0  0  0  0  0  0  0  0  0  0  0
  -15.1207    2.0432   22.8615 C   0  0  0  0  0  0  0  0  0  0  0  0
  -16.0346    3.2142   22.9353 N   0  0  0  0  0  0  0  0  0  0  0  0
  -13.6562    2.4878   22.5697 C   0  0  0  0  0  0  0  0  0  0  0  0
  -13.3792    3.6745   22.6426 O   0  0  0  0  0  0  0  0  0  0  0  0
  -12.7022    1.6149   22.2735 N   0  0  0  0  0  0  0  0  0  0  0  0
  -17.3023   -0.2120   21.2960 H   0  0  0  0  0  0  0  0  0  0  0  0
  -17.7930    1.3562   21.9338 H   0  0  0  0  0  0  0  0  0  0  0  0
  -17.1461    0.1026   23.0288 H   0  0  0  0  0  0  0  0  0  0  0  0
  -15.5788    1.5341   20.8084 H   0  0  0  0  0  0  0  0  0  0  0  0
  -14.9639    0.1962   21.7720 H   0  0  0  0  0  0  0  0  0  0  0  0
  -15.1170    1.5235   23.8218 H   0  0  0  0  0  0  0  0  0  0  0  0
  -15.8966    3.7554   22.0896 H   0  0  0  0  0  0  0  0  0  0  0  0
  -15.7492    3.8145   23.6965 H   0  0  0  0  0  0  0  0  0  0  0  0
  -16.9948    2.9238   23.0275 H   0  0  0  0  0  0  0  0  0  0  0  0
  -11.7807    1.9971   22.1060 H   0  0  0  0  0  0  0  0  0  0  0  0
  -12.8606    0.6226   22.1946 H   0  0  0  0  0  0  0  0  0  0  0  0
  1  2  1  0
  1  8  1  0
  1  9  1  0
  1 10  1  0
  2  3  1  0
  2 11  1  0
  2 12  1  0
  3  4  1  0
  3  5  1  0
  3 13  1  0
  4 14  1  0
  4 15  1  0
  4 16  1  0
  5  6  2  0
  5  7  1  0
  7 17  1  0
  7 18  1  0
M  CHG  1   4   1
M  END
> <intraLJ>
0.359     

> <intraEL>
1.591     

> <intraDihe>
0.593     

> <interLJ>
0.000     

> <interEJ>
0.000     

> <gridLJ>
-2.479    

> <gridEL>
0.000     

> <totalE>
0.065     

> <LGFE>
-2.479  

> <LE>
-0.354  

> <SMILES>
CCC([NH3+])C(N)=O

> <atom.dprop.GFE>
-0.58 -0.5 -0.31 -1.1 0 0.34 -0.34 0 0 0 0 0 0 0 0 0 0 0

> <atom.prop.CLASS>
PRPC PRPC PRPC MAMN NCLA GENA GEND NCLA NCLA NCLA NCLA NCLA NCLA NCLA NCLA NCLA NCLA NCLA

$$$$
