81_2
     RDKit          3D

 19 19  0  0  1  0  0  0  0  0999 V2000
   17.9092   -1.8447  -13.7326 N   0  0  0  0  0  0  0  0  0  0  0  0
   18.3071   -3.2225  -13.3497 C   0  0  0  0  0  0  0  0  0  0  0  0
   19.3465   -3.1669  -12.2189 C   0  0  0  0  0  0  0  0  0  0  0  0
   20.6671   -2.5060  -12.6009 C   0  0  0  0  0  0  0  0  0  0  0  0
   21.6570   -3.1781  -11.6482 C   0  0  0  0  0  0  0  0  0  0  0  0
   20.9193   -4.4154  -11.1306 C   0  0  0  0  0  0  0  0  0  0  0  0
   19.7231   -4.4925  -11.8918 O   0  0  0  0  0  0  0  0  0  0  0  0
   17.1325   -1.8331  -14.3757 H   0  0  0  0  0  0  0  0  0  0  0  0
   18.6991   -1.3382  -14.1051 H   0  0  0  0  0  0  0  0  0  0  0  0
   17.6653   -1.3847  -12.8567 H   0  0  0  0  0  0  0  0  0  0  0  0
   17.4331   -3.7540  -12.9651 H   0  0  0  0  0  0  0  0  0  0  0  0
   18.7095   -3.7805  -14.1989 H   0  0  0  0  0  0  0  0  0  0  0  0
   18.9256   -2.6780  -11.3375 H   0  0  0  0  0  0  0  0  0  0  0  0
   20.9323   -2.7468  -13.6328 H   0  0  0  0  0  0  0  0  0  0  0  0
   20.6386   -1.4250  -12.4516 H   0  0  0  0  0  0  0  0  0  0  0  0
   21.9008   -2.5181  -10.8132 H   0  0  0  0  0  0  0  0  0  0  0  0
   22.5695   -3.4640  -12.1754 H   0  0  0  0  0  0  0  0  0  0  0  0
   20.6806   -4.2845  -10.0732 H   0  0  0  0  0  0  0  0  0  0  0  0
   21.5235   -5.3160  -11.2602 H   0  0  0  0  0  0  0  0  0  0  0  0
  1  2  1  0
  1  8  1  0
  1  9  1  0
  1 10  1  0
  2  3  1  0
  2 11  1  0
  2 12  1  0
  3  4  1  0
  3  7  1  0
  3 13  1  0
  4  5  1  0
  4 14  1  0
  4 15  1  0
  5  6  1  0
  5 16  1  0
  5 17  1  0
  6  7  1  0
  6 18  1  0
  6 19  1  0
M  CHG  1   1   1
M  END
> <intraLJ>
-0.745    

> <intraEL>
2.670     

> <intraDihe>
7.603     

> <interLJ>
0.000     

> <interEJ>
0.000     

> <gridLJ>
-4.042    

> <gridEL>
0.000     

> <totalE>
5.485     

> <LGFE>
-4.042  

> <LE>
-0.577  

> <SMILES>
[NH3+]CC1CCCO1

> <atom.dprop.GFE>
-2 -0.24 -0.35 -0.31 -0.28 -0.3 -0.59 0 0 0 0 0 0 0 0 0 0 0 0

> <atom.prop.CLASS>
MAMN PRPC PRPC PRPC PRPC PRPC GENA NCLA NCLA NCLA NCLA NCLA NCLA NCLA NCLA NCLA NCLA NCLA NCLA

$$$$
