6
     RDKit          3D

 10 10  0  0  0  0  0  0  0  0999 V2000
   -9.8034   14.1285   -4.6525 N   0  0  0  0  0  0  0  0  0  0  0  0
   -8.9985   14.6738   -3.6702 C   0  0  0  0  0  0  0  0  0  0  0  0
   -8.0518   15.6732   -3.8383 C   0  0  0  0  0  0  0  0  0  0  0  0
   -7.5401   15.8701   -2.6164 C   0  0  0  0  0  0  0  0  0  0  0  0
   -8.1572   15.0298   -1.7702 O   0  0  0  0  0  0  0  0  0  0  0  0
   -9.0701   14.2855   -2.4480 N   0  0  0  0  0  0  0  0  0  0  0  0
  -10.6118   13.6634   -4.2194 H   0  0  0  0  0  0  0  0  0  0  0  0
  -10.0592   14.8123   -5.3739 H   0  0  0  0  0  0  0  0  0  0  0  0
   -7.7863   16.1657   -4.7351 H   0  0  0  0  0  0  0  0  0  0  0  0
   -6.7892   16.5352   -2.2733 H   0  0  0  0  0  0  0  0  0  0  0  0
  1  2  1  0
  1  7  1  0
  1  8  1  0
  2  3  1  0
  2  6  2  0
  3  4  2  0
  3  9  1  0
  4  5  1  0
  4 10  1  0
  5  6  1  0
M  END
> <intraLJ>
-0.275    

> <intraEL>
-7.962    

> <intraDihe>
1.578     

> <interLJ>
0.000     

> <interEJ>
0.000     

> <gridLJ>
-2.357    

> <gridEL>
0.000     

> <totalE>
-9.016    

> <LGFE>
-2.357  

> <LE>
-0.393  

> <SMILES>
Nc1ccon1

> <atom.dprop.GFE>
-0.39 -0.055 0.026 -0.095 -0.92 -0.92 0 0 0 0

> <atom.prop.CLASS>
GEND GEHC GEHC GEHC GENA GENA NCLA NCLA NCLA NCLA

$$$$
