27_2
     RDKit          3D

 12 12  0  0  0  0  0  0  0  0999 V2000
   22.2875    0.3780  -18.5361 N   0  0  0  0  0  0  0  0  0  0  0  0
   22.5721    0.1323  -19.7927 C   0  0  0  0  0  0  0  0  0  0  0  0
   23.7112    0.4090  -20.3848 N   0  0  0  0  0  0  0  0  0  0  0  0
   23.6385    0.0060  -21.7063 C   0  0  0  0  0  0  0  0  0  0  0  0
   22.4094   -0.5222  -21.8811 C   0  0  0  0  0  0  0  0  0  0  0  0
   21.7623   -0.4287  -20.6612 N   0  0  0  0  0  0  0  0  0  0  0  0
   21.3671    0.1274  -18.1558 H   0  0  0  0  0  0  0  0  0  0  0  0
   22.9835    0.8216  -17.9258 H   0  0  0  0  0  0  0  0  0  0  0  0
   24.5065    0.8539  -19.9059 H   0  0  0  0  0  0  0  0  0  0  0  0
   24.4394    0.1226  -22.3951 H   0  0  0  0  0  0  0  0  0  0  0  0
   21.9598   -0.9426  -22.7470 H   0  0  0  0  0  0  0  0  0  0  0  0
   20.8077   -0.7350  -20.4310 H   0  0  0  0  0  0  0  0  0  0  0  0
  1  2  2  0
  1  7  1  0
  1  8  1  0
  2  3  1  0
  2  6  1  0
  3  4  1  0
  3  9  1  0
  4  5  2  0
  4 10  1  0
  5  6  1  0
  5 11  1  0
  6 12  1  0
M  CHG  1   1   1
M  END
> <intraLJ>
-0.384    

> <intraEL>
3.349     

> <intraDihe>
0.000     

> <interLJ>
0.000     

> <interEJ>
0.000     

> <gridLJ>
-5.259    

> <gridEL>
0.000     

> <totalE>
-2.294    

> <LGFE>
-5.259  

> <LE>
-0.877  

> <SMILES>
[NH2+]=c1[nH]cc[nH]1

> <atom.dprop.GFE>
-2.4 -2.5 0 -0.14 -0.17 0 0 0 0 0 0 0

> <atom.prop.CLASS>
MAMN MAMC NCLA GEHC GEHC NCLA NCLA NCLA NCLA NCLA NCLA NCLA

$$$$
