24_1
     RDKit          3D

 16 16  0  0  0  0  0  0  0  0999 V2000
  -29.0853   -9.8059   28.5863 N   0  0  0  0  0  0  0  0  0  0  0  0
  -28.6040  -10.0891   27.3774 C   0  0  0  0  0  0  0  0  0  0  0  0
  -29.3417  -10.0857   26.3555 N   0  0  0  0  0  0  0  0  0  0  0  0
  -28.7817  -10.3654   25.0298 C   0  0  0  0  0  0  0  0  0  0  0  0
  -27.3268   -9.8750   25.0449 C   0  0  0  0  0  0  0  0  0  0  0  0
  -26.5533  -10.5886   26.1598 C   0  0  0  0  0  0  0  0  0  0  0  0
  -27.2790  -10.3631   27.4138 N   0  0  0  0  0  0  0  0  0  0  0  0
  -30.1089   -9.8434   28.5589 H   0  0  0  0  0  0  0  0  0  0  0  0
  -28.6459  -10.3771   29.3114 H   0  0  0  0  0  0  0  0  0  0  0  0
  -29.3462   -9.8237   24.2707 H   0  0  0  0  0  0  0  0  0  0  0  0
  -28.8246  -11.4366   24.8261 H   0  0  0  0  0  0  0  0  0  0  0  0
  -27.3094   -8.7969   25.2166 H   0  0  0  0  0  0  0  0  0  0  0  0
  -26.8614  -10.0889   24.0838 H   0  0  0  0  0  0  0  0  0  0  0  0
  -25.5389  -10.1911   26.2255 H   0  0  0  0  0  0  0  0  0  0  0  0
  -26.5132  -11.6593   25.9482 H   0  0  0  0  0  0  0  0  0  0  0  0
  -26.7985   -9.8244   28.1422 H   0  0  0  0  0  0  0  0  0  0  0  0
  1  2  1  0
  1  8  1  0
  1  9  1  0
  2  3  2  0
  2  7  1  0
  3  4  1  0
  4  5  1  0
  4 10  1  0
  4 11  1  0
  5  6  1  0
  5 12  1  0
  5 13  1  0
  6  7  1  0
  6 14  1  0
  6 15  1  0
  7 16  1  0
M  END
> <intraLJ>
3.879     

> <intraEL>
-12.614   

> <intraDihe>
8.194     

> <interLJ>
0.000     

> <interEJ>
0.000     

> <gridLJ>
-2.342    

> <gridEL>
0.000     

> <totalE>
-2.882    

> <LGFE>
-2.342  

> <LE>
-0.335  

> <SMILES>
NC1=NCCCN1

> <atom.dprop.GFE>
-0.3 0 -0.91 -0.48 -0.34 -0.23 -0.075 0 0 0 0 0 0 0 0 0

> <atom.prop.CLASS>
GEND NCLA GENA PRPC PRPC PRPC GEND NCLA NCLA NCLA NCLA NCLA NCLA NCLA NCLA NCLA

$$$$
