53
     RDKit          3D

 16 16  0  0  0  0  0  0  0  0999 V2000
   -2.0629   11.2651    8.4984 O   0  0  0  0  0  0  0  0  0  0  0  0
   -0.9983   11.8530    8.5977 C   0  0  0  0  0  0  0  0  0  0  0  0
   -0.2413   11.9475    9.9203 C   0  0  0  0  0  0  0  0  0  0  0  0
    0.2962   13.3757   10.1737 C   0  0  0  0  0  0  0  0  0  0  0  0
    0.7674   14.0901    8.8797 C   0  0  0  0  0  0  0  0  0  0  0  0
    0.8256   13.1505    7.6663 C   0  0  0  0  0  0  0  0  0  0  0  0
   -0.4647   12.4887    7.5621 N   0  0  0  0  0  0  0  0  0  0  0  0
    0.5960   11.2522    9.8722 H   0  0  0  0  0  0  0  0  0  0  0  0
   -0.9009   11.6473   10.7352 H   0  0  0  0  0  0  0  0  0  0  0  0
    1.1210   13.3215   10.8867 H   0  0  0  0  0  0  0  0  0  0  0  0
   -0.4992   13.9730   10.6246 H   0  0  0  0  0  0  0  0  0  0  0  0
    1.7504   14.5346    9.0411 H   0  0  0  0  0  0  0  0  0  0  0  0
    0.0665   14.8947    8.6512 H   0  0  0  0  0  0  0  0  0  0  0  0
    1.6183   12.4123    7.8045 H   0  0  0  0  0  0  0  0  0  0  0  0
    1.0302   13.7287    6.7626 H   0  0  0  0  0  0  0  0  0  0  0  0
   -0.9718   12.4598    6.6929 H   0  0  0  0  0  0  0  0  0  0  0  0
  1  2  2  0
  2  3  1  0
  2  7  1  0
  3  4  1  0
  3  8  1  0
  3  9  1  0
  4  5  1  0
  4 10  1  0
  4 11  1  0
  5  6  1  0
  5 12  1  0
  5 13  1  0
  6  7  1  0
  6 14  1  0
  6 15  1  0
  7 16  1  0
M  END
> <intraLJ>
0.344     

> <intraEL>
-2.405    

> <intraDihe>
10.947    

> <interLJ>
0.000     

> <interEJ>
0.000     

> <gridLJ>
-2.316    

> <gridEL>
0.000     

> <totalE>
6.570     

> <LGFE>
-2.316  

> <LE>
-0.331  

> <SMILES>
O=C1CCCCN1

> <atom.dprop.GFE>
-0.4 0 -0.23 -0.25 -0.33 -0.32 -0.79 0 0 0 0 0 0 0 0 0

> <atom.prop.CLASS>
GENA NCLA PRPC PRPC PRPC PRPC GEND NCLA NCLA NCLA NCLA NCLA NCLA NCLA NCLA NCLA

$$$$
