46_2
     RDKit          3D

 15 15  0  0  0  0  0  0  0  0999 V2000
   -6.9311   10.1559   -7.6537 C   0  0  0  0  0  0  0  0  0  0  0  0
   -5.6538    9.3326   -7.9044 C   0  0  0  0  0  0  0  0  0  0  0  0
   -5.1399    9.8373   -9.2497 C   0  0  0  0  0  0  0  0  0  0  0  0
   -5.6545   11.2142   -9.3502 N   0  0  0  0  0  0  0  0  0  0  0  0
   -7.0434   11.0526   -8.8843 C   0  0  0  0  0  0  0  0  0  0  0  0
   -6.8164   10.7650   -6.7553 H   0  0  0  0  0  0  0  0  0  0  0  0
   -7.8119    9.5164   -7.5622 H   0  0  0  0  0  0  0  0  0  0  0  0
   -5.8677    8.2626   -7.9517 H   0  0  0  0  0  0  0  0  0  0  0  0
   -4.9187    9.5321   -7.1214 H   0  0  0  0  0  0  0  0  0  0  0  0
   -5.5763    9.2167  -10.0373 H   0  0  0  0  0  0  0  0  0  0  0  0
   -4.0488    9.7867   -9.3125 H   0  0  0  0  0  0  0  0  0  0  0  0
   -5.5831   11.6056  -10.2821 H   0  0  0  0  0  0  0  0  0  0  0  0
   -5.1576   11.7955   -8.6880 H   0  0  0  0  0  0  0  0  0  0  0  0
   -7.5261   12.0054   -8.6499 H   0  0  0  0  0  0  0  0  0  0  0  0
   -7.6322   10.5244   -9.6400 H   0  0  0  0  0  0  0  0  0  0  0  0
  1  2  1  0
  1  5  1  0
  1  6  1  0
  1  7  1  0
  2  3  1  0
  2  8  1  0
  2  9  1  0
  3  4  1  0
  3 10  1  0
  3 11  1  0
  4  5  1  0
  4 12  1  0
  4 13  1  0
  5 14  1  0
  5 15  1  0
M  CHG  1   4   1
M  END
> <intraLJ>
-0.364    

> <intraEL>
9.610     

> <intraDihe>
5.719     

> <interLJ>
0.000     

> <interEJ>
0.000     

> <gridLJ>
-3.306    

> <gridEL>
0.000     

> <totalE>
11.660    

> <LGFE>
-3.306  

> <LE>
-0.661  

> <SMILES>
C1CC[NH2+]C1

> <atom.dprop.GFE>
-0.55 -0.44 -0.46 -1.4 -0.44 0 0 0 0 0 0 0 0 0 0

> <atom.prop.CLASS>
PRPC PRPC PRPC MAMN PRPC NCLA NCLA NCLA NCLA NCLA NCLA NCLA NCLA NCLA NCLA

$$$$
