70_2
     RDKit          3D

 12 12  0  0  0  0  0  0  0  0999 V2000
  -18.9429    7.0454   -3.8952 N   0  0  0  0  0  0  0  0  0  0  0  0
  -17.7816    6.9867   -3.1849 C   0  0  0  0  0  0  0  0  0  0  0  0
  -17.4477    6.2753   -2.0704 C   0  0  0  0  0  0  0  0  0  0  0  0
  -16.1209    6.5621   -1.7301 C   0  0  0  0  0  0  0  0  0  0  0  0
  -15.3813    6.1610   -0.7988 O   0  0  0  0  0  0  0  0  0  0  0  0
  -15.6731    7.4498   -2.6585 N   0  0  0  0  0  0  0  0  0  0  0  0
  -16.7472    7.7230   -3.6003 N   0  0  0  0  0  0  0  0  0  0  0  0
  -19.7899    6.7114   -3.4137 H   0  0  0  0  0  0  0  0  0  0  0  0
  -19.0689    7.8680   -4.4996 H   0  0  0  0  0  0  0  0  0  0  0  0
  -18.0765    5.6127   -1.5447 H   0  0  0  0  0  0  0  0  0  0  0  0
  -14.7180    7.8422   -2.6822 H   0  0  0  0  0  0  0  0  0  0  0  0
  -16.6869    8.3232   -4.4425 H   0  0  0  0  0  0  0  0  0  0  0  0
  1  2  1  0
  1  8  1  0
  1  9  1  0
  2  3  2  0
  2  7  1  0
  3  4  1  0
  3 10  1  0
  4  5  2  0
  4  6  1  0
  6  7  1  0
  6 11  1  0
  7 12  1  0
M  END
> <intraLJ>
-0.628    

> <intraEL>
-11.018   

> <intraDihe>
1.030     

> <interLJ>
0.000     

> <interEJ>
0.000     

> <gridLJ>
-6.086    

> <gridEL>
0.000     

> <totalE>
-16.702   

> <LGFE>
-6.086  

> <LE>
-0.869  

> <SMILES>
Nc1cc(=O)[nH][nH]1

> <atom.dprop.GFE>
-0.47 -0.32 -0.39 -0.47 -2 -1.3 -1.1 0 0 0 0 0

> <atom.prop.CLASS>
GEND GEHC GEHC GEHC GENA GEND GEND NCLA NCLA NCLA NCLA NCLA

$$$$
