12
     RDKit          3D

 10 10  0  0  0  0  0  0  0  0999 V2000
   23.9538    7.6020   -7.6656 N   0  0  0  0  0  0  0  0  0  0  0  0
   22.9052    7.1530   -7.5715 C   0  0  0  0  0  0  0  0  0  0  0  0
   21.5693    6.6100   -7.4522 C   0  0  0  0  0  0  0  0  0  0  0  0
   20.4206    7.3363   -7.4061 C   0  0  0  0  0  0  0  0  0  0  0  0
   19.4222    6.4471   -7.2948 N   0  0  0  0  0  0  0  0  0  0  0  0
   19.9695    5.2114   -7.2747 C   0  0  0  0  0  0  0  0  0  0  0  0
   21.2641    5.2722   -7.3685 N   0  0  0  0  0  0  0  0  0  0  0  0
   20.2581    8.3834   -7.4439 H   0  0  0  0  0  0  0  0  0  0  0  0
   18.4097    6.6563   -7.2336 H   0  0  0  0  0  0  0  0  0  0  0  0
   19.3614    4.3457   -7.1915 H   0  0  0  0  0  0  0  0  0  0  0  0
  1  2  3  0
  2  3  1  0
  3  4  2  0
  3  7  1  0
  4  5  1  0
  4  8  1  0
  5  6  1  0
  5  9  1  0
  6  7  2  0
  6 10  1  0
M  END
> <intraLJ>
-0.793    

> <intraEL>
2.828     

> <intraDihe>
0.000     

> <interLJ>
0.000     

> <interEJ>
0.000     

> <gridLJ>
-3.685    

> <gridEL>
0.000     

> <totalE>
-1.649    

> <LGFE>
-3.685  

> <LE>
-0.526  

> <SMILES>
N#Cc1c[nH]cn1

> <atom.dprop.GFE>
-1.3 0 -0.34 -0.15 -0.76 -0.23 -0.93 0 0 0

> <atom.prop.CLASS>
GENA NCLA GEHC GEHC GEND GEHC GENA NCLA NCLA NCLA

$$$$
