46_1
     RDKit          3D

 14 14  0  0  0  0  0  0  0  0999 V2000
   18.1696    6.4992   -4.6241 C   0  0  0  0  0  0  0  0  0  0  0  0
   17.4923    7.0311   -5.8988 C   0  0  0  0  0  0  0  0  0  0  0  0
   16.0001    7.0160   -5.5737 C   0  0  0  0  0  0  0  0  0  0  0  0
   15.9222    7.0729   -4.1081 N   0  0  0  0  0  0  0  0  0  0  0  0
   17.0101    6.1820   -3.6840 C   0  0  0  0  0  0  0  0  0  0  0  0
   18.7874    7.2830   -4.1850 H   0  0  0  0  0  0  0  0  0  0  0  0
   18.7652    5.6076   -4.8227 H   0  0  0  0  0  0  0  0  0  0  0  0
   17.7054    6.3993   -6.7622 H   0  0  0  0  0  0  0  0  0  0  0  0
   17.8152    8.0559   -6.0848 H   0  0  0  0  0  0  0  0  0  0  0  0
   15.5731    6.0747   -5.9287 H   0  0  0  0  0  0  0  0  0  0  0  0
   15.4776    7.8543   -6.0402 H   0  0  0  0  0  0  0  0  0  0  0  0
   15.0164    6.8047   -3.7433 H   0  0  0  0  0  0  0  0  0  0  0  0
   17.2827    6.3447   -2.6390 H   0  0  0  0  0  0  0  0  0  0  0  0
   16.7120    5.1408   -3.8289 H   0  0  0  0  0  0  0  0  0  0  0  0
  1  2  1  0
  1  5  1  0
  1  6  1  0
  1  7  1  0
  2  3  1  0
  2  8  1  0
  2  9  1  0
  3  4  1  0
  3 10  1  0
  3 11  1  0
  4  5  1  0
  4 12  1  0
  5 13  1  0
  5 14  1  0
M  END
> <intraLJ>
-0.383    

> <intraEL>
0.415     

> <intraDihe>
8.071     

> <interLJ>
0.000     

> <interEJ>
0.000     

> <gridLJ>
-3.056    

> <gridEL>
0.000     

> <totalE>
5.047     

> <LGFE>
-3.056  

> <LE>
-0.611  

> <SMILES>
C1CCNC1

> <atom.dprop.GFE>
-0.51 -0.56 -0.47 -0.98 -0.53 0 0 0 0 0 0 0 0 0

> <atom.prop.CLASS>
PRPC PRPC PRPC GEND PRPC NCLA NCLA NCLA NCLA NCLA NCLA NCLA NCLA NCLA

$$$$
