70_2
     RDKit          3D

 12 12  0  0  0  0  0  0  0  0999 V2000
  -29.5955   17.0943   22.7936 N   0  0  0  0  0  0  0  0  0  0  0  0
  -29.0444   16.1296   23.5824 C   0  0  0  0  0  0  0  0  0  0  0  0
  -29.0786   15.9493   24.9337 C   0  0  0  0  0  0  0  0  0  0  0  0
  -28.3539   14.7961   25.2557 C   0  0  0  0  0  0  0  0  0  0  0  0
  -28.1028   14.2331   26.3489 O   0  0  0  0  0  0  0  0  0  0  0  0
  -27.8931   14.2949   24.0781 N   0  0  0  0  0  0  0  0  0  0  0  0
  -28.3412   15.1570   22.9958 N   0  0  0  0  0  0  0  0  0  0  0  0
  -29.8768   17.9650   23.2663 H   0  0  0  0  0  0  0  0  0  0  0  0
  -29.1874   17.2078   21.8564 H   0  0  0  0  0  0  0  0  0  0  0  0
  -29.5694   16.5686   25.6311 H   0  0  0  0  0  0  0  0  0  0  0  0
  -27.3310   13.4331   23.9871 H   0  0  0  0  0  0  0  0  0  0  0  0
  -28.1846   15.0026   21.9835 H   0  0  0  0  0  0  0  0  0  0  0  0
  1  2  1  0
  1  8  1  0
  1  9  1  0
  2  3  2  0
  2  7  1  0
  3  4  1  0
  3 10  1  0
  4  5  2  0
  4  6  1  0
  6  7  1  0
  6 11  1  0
  7 12  1  0
M  END
> <intraLJ>
-0.628    

> <intraEL>
-11.018   

> <intraDihe>
1.030     

> <interLJ>
0.000     

> <interEJ>
0.000     

> <gridLJ>
-2.699    

> <gridEL>
0.000     

> <totalE>
-13.315   

> <LGFE>
-2.699  

> <LE>
-0.386  

> <SMILES>
Nc1cc(=O)[nH][nH]1

> <atom.dprop.GFE>
-0.39 -0.18 -0.1 -0.14 -1 -0.35 -0.54 0 0 0 0 0

> <atom.prop.CLASS>
GEND GEHC GEHC GEHC GENA GEND GEND NCLA NCLA NCLA NCLA NCLA

$$$$
