39_3
     RDKit          3D

 11 11  0  0  0  0  0  0  0  0999 V2000
   26.4699   13.1271   -9.3160 O   0  0  0  0  0  0  0  0  0  0  0  0
   25.6162   14.1146   -9.0248 C   0  0  0  0  0  0  0  0  0  0  0  0
   25.0714   14.9104  -10.0159 C   0  0  0  0  0  0  0  0  0  0  0  0
   24.1947   15.9104   -9.6159 C   0  0  0  0  0  0  0  0  0  0  0  0
   23.9248   16.0435   -8.2618 C   0  0  0  0  0  0  0  0  0  0  0  0
   24.4926   15.2310   -7.3526 N   0  0  0  0  0  0  0  0  0  0  0  0
   25.3347   14.2688   -7.7263 N   0  0  0  0  0  0  0  0  0  0  0  0
   26.6889   12.7403   -8.4470 H   0  0  0  0  0  0  0  0  0  0  0  0
   25.3202   14.7555  -11.0321 H   0  0  0  0  0  0  0  0  0  0  0  0
   23.7433   16.5553  -10.3243 H   0  0  0  0  0  0  0  0  0  0  0  0
   23.2617   16.7921   -7.9103 H   0  0  0  0  0  0  0  0  0  0  0  0
  1  2  1  0
  1  8  1  0
  2  3  2  0
  2  7  1  0
  3  4  1  0
  3  9  1  0
  4  5  2  0
  4 10  1  0
  5  6  1  0
  5 11  1  0
  6  7  2  0
M  END
> <intraLJ>
16.308    

> <intraEL>
-0.658    

> <intraDihe>
0.000     

> <interLJ>
0.000     

> <interEJ>
0.000     

> <gridLJ>
-2.264    

> <gridEL>
0.000     

> <totalE>
13.386    

> <LGFE>
-2.264  

> <LE>
-0.323  

> <SMILES>
Oc1cccnn1

> <atom.dprop.GFE>
-0.41 -0.12 -0.1 -0.12 -0.12 -0.76 -0.65 0 0 0 0

> <atom.prop.CLASS>
MEOO BENC BENC BENC BENC GENA GENA NCLA NCLA NCLA NCLA

$$$$
