23_3
     RDKit          3D

 11 11  0  0  0  0  0  0  0  0999 V2000
  -35.2274   -2.5409   29.3244 O   0  0  0  0  0  0  0  0  0  0  0  0
  -35.0603   -3.2843   28.3696 C   0  0  0  0  0  0  0  0  0  0  0  0
  -33.8381   -3.8849   28.2747 N   0  0  0  0  0  0  0  0  0  0  0  0
  -33.5135   -4.7436   27.2538 C   0  0  0  0  0  0  0  0  0  0  0  0
  -34.4713   -4.9828   26.3176 C   0  0  0  0  0  0  0  0  0  0  0  0
  -35.7408   -4.3480   26.4324 C   0  0  0  0  0  0  0  0  0  0  0  0
  -36.0187   -3.5489   27.3974 N   0  0  0  0  0  0  0  0  0  0  0  0
  -33.1780   -3.6450   29.0270 H   0  0  0  0  0  0  0  0  0  0  0  0
  -32.5366   -5.1620   27.2659 H   0  0  0  0  0  0  0  0  0  0  0  0
  -34.2920   -5.6333   25.5031 H   0  0  0  0  0  0  0  0  0  0  0  0
  -36.4848   -4.5379   25.7003 H   0  0  0  0  0  0  0  0  0  0  0  0
  1  2  2  0
  2  3  1  0
  2  7  1  0
  3  4  1  0
  3  8  1  0
  4  5  2  0
  4  9  1  0
  5  6  1  0
  5 10  1  0
  6  7  2  0
  6 11  1  0
M  END
> <intraLJ>
11.692    

> <intraEL>
-4.846    

> <intraDihe>
0.000     

> <interLJ>
0.000     

> <interEJ>
0.000     

> <gridLJ>
-2.660    

> <gridEL>
0.000     

> <totalE>
4.186     

> <LGFE>
-2.660  

> <LE>
-0.380  

> <SMILES>
O=c1nccc[nH]1

> <atom.dprop.GFE>
-0.83 -0.24 -0.43 -0.06 -0.066 -0.072 -0.96 0 0 0 0

> <atom.prop.CLASS>
GENA GEHC GEND BENC BENC BENC GENA NCLA NCLA NCLA NCLA

$$$$
