52_2
     RDKit          3D

  9  9  0  0  0  0  0  0  0  0999 V2000
  -14.2023   -0.7072   22.3305 C   0  0  0  0  0  0  0  0  0  0  0  0
  -15.5790   -0.1726   22.5938 C   0  0  0  0  0  0  0  0  0  0  0  0
  -16.4390   -0.7679   23.3648 N   0  0  0  0  0  0  0  0  0  0  0  0
  -17.5048    0.0142   23.3259 N   0  0  0  0  0  0  0  0  0  0  0  0
  -17.2472    1.0482   22.5368 N   0  0  0  0  0  0  0  0  0  0  0  0
  -16.0163    0.9303   22.0666 N   0  0  0  0  0  0  0  0  0  0  0  0
  -14.0838   -1.6209   22.9090 H   0  0  0  0  0  0  0  0  0  0  0  0
  -13.4978    0.0592   22.6451 H   0  0  0  0  0  0  0  0  0  0  0  0
  -14.1342   -0.8974   21.2623 H   0  0  0  0  0  0  0  0  0  0  0  0
  1  2  1  0
  1  7  1  0
  1  8  1  0
  1  9  1  0
  2  3  1  0
  2  6  2  0
  3  4  1  0
  4  5  2  0
  5  6  1  0
M  CHG  1   3  -1
M  END
> <intraLJ>
0.213     

> <intraEL>
-1.734    

> <intraDihe>
1.640     

> <interLJ>
0.000     

> <interEJ>
0.000     

> <gridLJ>
-2.822    

> <gridEL>
0.000     

> <totalE>
-2.703    

> <LGFE>
-2.822  

> <LE>
-0.470  

> <SMILES>
Cc1nnn[n-]1

> <atom.dprop.GFE>
-0.33 -0.16 0.24 -0.87 -0.87 -0.84 0 0 0

> <atom.prop.CLASS>
PRPC GEHC ACEC GENA GENA GENA NCLA NCLA NCLA

$$$$
