39_1
     RDKit          3D

 11 11  0  0  0  0  0  0  0  0999 V2000
   11.4530    8.3286    1.3209 O   0  0  0  0  0  0  0  0  0  0  0  0
   11.9277    7.9016    2.3760 C   0  0  0  0  0  0  0  0  0  0  0  0
   11.3433    8.0020    3.6742 C   0  0  0  0  0  0  0  0  0  0  0  0
   12.0003    7.4748    4.7497 C   0  0  0  0  0  0  0  0  0  0  0  0
   13.2609    6.8312    4.5700 C   0  0  0  0  0  0  0  0  0  0  0  0
   13.8065    6.7303    3.3956 N   0  0  0  0  0  0  0  0  0  0  0  0
   13.1460    7.2607    2.3085 N   0  0  0  0  0  0  0  0  0  0  0  0
   10.4075    8.4875    3.7660 H   0  0  0  0  0  0  0  0  0  0  0  0
   11.5881    7.5367    5.7237 H   0  0  0  0  0  0  0  0  0  0  0  0
   13.7670    6.4243    5.4076 H   0  0  0  0  0  0  0  0  0  0  0  0
   13.5693    7.1884    1.3671 H   0  0  0  0  0  0  0  0  0  0  0  0
  1  2  2  0
  2  3  1  0
  2  7  1  0
  3  4  2  0
  3  8  1  0
  4  5  1  0
  4  9  1  0
  5  6  2  0
  5 10  1  0
  6  7  1  0
  7 11  1  0
M  END
> <intraLJ>
10.206    

> <intraEL>
-0.642    

> <intraDihe>
0.000     

> <interLJ>
0.000     

> <interEJ>
0.000     

> <gridLJ>
-2.054    

> <gridEL>
0.000     

> <totalE>
7.510     

> <LGFE>
-2.054  

> <LE>
-0.293  

> <SMILES>
O=c1cccn[nH]1

> <atom.dprop.GFE>
0.019 -0.2 0.065 -0.016 0.066 -0.9 -1.1 0 0 0 0

> <atom.prop.CLASS>
GENA GEHC BENC BENC BENC GENA GEND NCLA NCLA NCLA NCLA

$$$$
