35_3
     RDKit          3D

 10 10  0  0  0  0  0  0  0  0999 V2000
   16.6390   -5.8764   -6.7885 N   0  0  0  0  0  0  0  0  0  0  0  0
   17.5099   -4.8052   -6.7796 C   0  0  0  0  0  0  0  0  0  0  0  0
   17.5544   -3.8967   -7.6826 N   0  0  0  0  0  0  0  0  0  0  0  0
   18.5480   -3.0860   -7.2424 C   0  0  0  0  0  0  0  0  0  0  0  0
   19.1096   -3.4449   -6.1284 N   0  0  0  0  0  0  0  0  0  0  0  0
   18.4248   -4.5625   -5.8296 N   0  0  0  0  0  0  0  0  0  0  0  0
   16.9925   -6.7549   -6.3901 H   0  0  0  0  0  0  0  0  0  0  0  0
   16.1827   -5.9808   -7.7075 H   0  0  0  0  0  0  0  0  0  0  0  0
   18.8488   -2.2147   -7.7716 H   0  0  0  0  0  0  0  0  0  0  0  0
   18.5670   -5.1443   -4.9891 H   0  0  0  0  0  0  0  0  0  0  0  0
  1  2  1  0
  1  7  1  0
  1  8  1  0
  2  3  2  0
  2  6  1  0
  3  4  1  0
  4  5  2  0
  4  9  1  0
  5  6  1  0
  6 10  1  0
M  END
> <intraLJ>
-0.206    

> <intraEL>
-6.323    

> <intraDihe>
2.580     

> <interLJ>
0.000     

> <interEJ>
0.000     

> <gridLJ>
-2.901    

> <gridEL>
0.000     

> <totalE>
-6.850    

> <LGFE>
-2.901  

> <LE>
-0.484  

> <SMILES>
Nc1ncn[nH]1

> <atom.dprop.GFE>
-0.45 -0.22 -1.1 -0.15 -0.49 -0.53 0 0 0 0

> <atom.prop.CLASS>
GEND GEHC GENA GEHC GENA GEND NCLA NCLA NCLA NCLA

$$$$
