48_1
     RDKit          3D

 17 16  0  0  1  0  0  0  0  0999 V2000
   -3.7148    1.4970   10.1221 C   0  0  0  0  0  0  0  0  0  0  0  0
   -3.6084    3.0288   10.0517 C   0  0  0  0  0  0  0  0  0  0  0  0
   -2.1612    3.5403    9.9381 C   0  0  0  0  0  0  0  0  0  0  0  0
   -2.1544    5.0258   10.0646 N   0  0  0  0  0  0  0  0  0  0  0  0
   -1.4587    3.0393    8.6394 C   0  0  0  0  0  0  0  0  0  0  0  0
   -1.5250    3.6373    7.5751 O   0  0  0  0  0  0  0  0  0  0  0  0
   -0.7139    1.9451    8.7020 N   0  0  0  0  0  0  0  0  0  0  0  0
   -4.7635    1.2047   10.1742 H   0  0  0  0  0  0  0  0  0  0  0  0
   -3.2008    1.1246   11.0094 H   0  0  0  0  0  0  0  0  0  0  0  0
   -3.2629    1.0511    9.2357 H   0  0  0  0  0  0  0  0  0  0  0  0
   -4.0709    3.4647   10.9392 H   0  0  0  0  0  0  0  0  0  0  0  0
   -4.1672    3.3753    9.1807 H   0  0  0  0  0  0  0  0  0  0  0  0
   -1.6019    3.0994   10.7653 H   0  0  0  0  0  0  0  0  0  0  0  0
   -2.8615    5.3999    9.4448 H   0  0  0  0  0  0  0  0  0  0  0  0
   -1.2579    5.3923    9.7779 H   0  0  0  0  0  0  0  0  0  0  0  0
   -0.2556    1.6657    7.8504 H   0  0  0  0  0  0  0  0  0  0  0  0
   -0.6226    1.4316    9.5602 H   0  0  0  0  0  0  0  0  0  0  0  0
  1  2  1  0
  1  8  1  0
  1  9  1  0
  1 10  1  0
  2  3  1  0
  2 11  1  0
  2 12  1  0
  3  4  1  0
  3  5  1  0
  3 13  1  0
  4 14  1  0
  4 15  1  0
  5  6  2  0
  5  7  1  0
  7 16  1  0
  7 17  1  0
M  END
> <intraLJ>
1.111     

> <intraEL>
4.895     

> <intraDihe>
1.988     

> <interLJ>
0.000     

> <interEJ>
0.000     

> <gridLJ>
-3.520    

> <gridEL>
0.000     

> <totalE>
4.474     

> <LGFE>
-3.520  

> <LE>
-0.503  

> <SMILES>
CCC(N)C(N)=O

> <atom.dprop.GFE>
-0.36 -0.4 -0.46 -0.19 0 -1.1 -1 0 0 0 0 0 0 0 0 0 0

> <atom.prop.CLASS>
PRPC PRPC PRPC GEND NCLA GENA GEND NCLA NCLA NCLA NCLA NCLA NCLA NCLA NCLA NCLA NCLA

$$$$
