11_1
     RDKit          3D

 11 11  0  0  0  0  0  0  0  0999 V2000
  -19.2177   -4.8164   24.3100 O   0  0  0  0  0  0  0  0  0  0  0  0
  -18.3349   -4.2102   24.8828 C   0  0  0  0  0  0  0  0  0  0  0  0
  -17.1433   -4.7696   25.5903 C   0  0  0  0  0  0  0  0  0  0  0  0
  -16.2437   -3.5170   25.6438 C   0  0  0  0  0  0  0  0  0  0  0  0
  -17.1718   -2.3832   25.5830 O   0  0  0  0  0  0  0  0  0  0  0  0
  -18.3117   -2.8794   24.9456 N   0  0  0  0  0  0  0  0  0  0  0  0
  -16.6884   -5.5633   25.0155 H   0  0  0  0  0  0  0  0  0  0  0  0
  -17.4428   -5.0429   26.5907 H   0  0  0  0  0  0  0  0  0  0  0  0
  -15.5880   -3.4895   24.7715 H   0  0  0  0  0  0  0  0  0  0  0  0
  -15.6523   -3.4886   26.5606 H   0  0  0  0  0  0  0  0  0  0  0  0
  -19.0459   -2.2801   24.5391 H   0  0  0  0  0  0  0  0  0  0  0  0
  1  2  2  0
  2  3  1  0
  2  6  1  0
  3  4  1  0
  3  7  1  0
  3  8  1  0
  4  5  1  0
  4  9  1  0
  4 10  1  0
  5  6  1  0
  6 11  1  0
M  END
> <intraLJ>
-0.418    

> <intraEL>
-2.154    

> <intraDihe>
5.561     

> <interLJ>
0.000     

> <interEJ>
0.000     

> <gridLJ>
-3.717    

> <gridEL>
0.000     

> <totalE>
-0.727    

> <LGFE>
-3.717  

> <LE>
-0.619  

> <SMILES>
O=C1CCON1

> <atom.dprop.GFE>
-1.6 -0.21 -0.09 -0.05 -0.76 -0.98 0 0 0 0 0

> <atom.prop.CLASS>
GENA GEHC PRPC PRPC GENA GEND NCLA NCLA NCLA NCLA NCLA

$$$$
