74_2
     RDKit          3D

 12 12  0  0  0  0  0  0  0  0999 V2000
  -16.1495   -6.8353   -7.5909 O   0  0  0  0  0  0  0  0  0  0  0  0
  -15.8865   -8.0213   -7.3891 C   0  0  0  0  0  0  0  0  0  0  0  0
  -15.3548   -8.9468   -8.3442 C   0  0  0  0  0  0  0  0  0  0  0  0
  -15.1052  -10.2407   -7.9934 C   0  0  0  0  0  0  0  0  0  0  0  0
  -15.3761  -10.6726   -6.6615 C   0  0  0  0  0  0  0  0  0  0  0  0
  -15.8836   -9.7946   -5.7457 C   0  0  0  0  0  0  0  0  0  0  0  0
  -16.1298   -8.4851   -6.1250 N   0  0  0  0  0  0  0  0  0  0  0  0
  -15.1657   -8.5885   -9.3221 H   0  0  0  0  0  0  0  0  0  0  0  0
  -14.7111  -10.9280   -8.6990 H   0  0  0  0  0  0  0  0  0  0  0  0
  -15.1803  -11.6795   -6.3927 H   0  0  0  0  0  0  0  0  0  0  0  0
  -16.1123  -10.0365   -4.7367 H   0  0  0  0  0  0  0  0  0  0  0  0
  -16.5112   -7.7914   -5.4663 H   0  0  0  0  0  0  0  0  0  0  0  0
  1  2  2  0
  2  3  1  0
  2  7  1  0
  3  4  2  0
  3  8  1  0
  4  5  1  0
  4  9  1  0
  5  6  2  0
  5 10  1  0
  6  7  1  0
  6 11  1  0
  7 12  1  0
M  END
> <intraLJ>
7.690     

> <intraEL>
-2.793    

> <intraDihe>
0.000     

> <interLJ>
0.000     

> <interEJ>
0.000     

> <gridLJ>
-3.134    

> <gridEL>
0.000     

> <totalE>
1.763     

> <LGFE>
-3.134  

> <LE>
-0.448  

> <SMILES>
O=c1cccc[nH]1

> <atom.dprop.GFE>
-1.5 -0.22 -0.069 -0.07 -0.045 -0.063 -1.2 0 0 0 0 0

> <atom.prop.CLASS>
GENA GEHC BENC BENC BENC BENC GEND NCLA NCLA NCLA NCLA NCLA

$$$$
