28_2
     RDKit          3D

 10 10  0  0  0  0  0  0  0  0999 V2000
   10.9337    8.1543   -1.6346 C   0  0  0  0  0  0  0  0  0  0  0  0
   11.6585    8.8959   -0.7678 C   0  0  0  0  0  0  0  0  0  0  0  0
   11.0629    8.7577    0.4590 N   0  0  0  0  0  0  0  0  0  0  0  0
   10.0074    7.9594    0.3606 C   0  0  0  0  0  0  0  0  0  0  0  0
    9.9181    7.5859   -0.9108 N   0  0  0  0  0  0  0  0  0  0  0  0
   11.0548    7.9894   -2.6806 H   0  0  0  0  0  0  0  0  0  0  0  0
   12.5274    9.4960   -0.9197 H   0  0  0  0  0  0  0  0  0  0  0  0
   11.3777    9.2039    1.3481 H   0  0  0  0  0  0  0  0  0  0  0  0
    9.3520    7.6718    1.1536 H   0  0  0  0  0  0  0  0  0  0  0  0
    9.1780    6.9528   -1.2835 H   0  0  0  0  0  0  0  0  0  0  0  0
  1  2  2  0
  1  5  1  0
  1  6  1  0
  2  3  1  0
  2  7  1  0
  3  4  2  0
  3  8  1  0
  4  5  1  0
  4  9  1  0
  5 10  1  0
M  CHG  1   3   1
M  END
> <intraLJ>
-0.306    

> <intraEL>
3.276     

> <intraDihe>
0.000     

> <interLJ>
0.000     

> <interEJ>
0.000     

> <gridLJ>
-2.338    

> <gridEL>
0.000     

> <totalE>
0.633     

> <LGFE>
-2.338  

> <LE>
-0.468  

> <SMILES>
c1c[nH+]c[nH]1

> <atom.dprop.GFE>
0.15 0.15 0 -2.6 0 0 0 0 0 0

> <atom.prop.CLASS>
GEHC GEHC NCLA MAMC NCLA NCLA NCLA NCLA NCLA NCLA

$$$$
