50_1
     RDKit          3D

 12 11  0  0  1  0  0  0  0  0999 V2000
  -37.9583    9.0890   16.0629 C   0  0  0  0  0  0  0  0  0  0  0  0
  -37.2254    8.1907   15.0674 C   0  0  0  0  0  0  0  0  0  0  0  0
  -37.2323    6.8735   15.6415 N   0  0  0  0  0  0  0  0  0  0  0  0
  -35.8034    8.5883   15.0380 C   0  0  0  0  0  0  0  0  0  0  0  0
  -34.6554    8.9088   15.0147 C   0  0  0  0  0  0  0  0  0  0  0  0
  -37.9349   10.1111   15.6835 H   0  0  0  0  0  0  0  0  0  0  0  0
  -37.4692    9.0325   17.0366 H   0  0  0  0  0  0  0  0  0  0  0  0
  -38.9876    8.7385   16.1345 H   0  0  0  0  0  0  0  0  0  0  0  0
  -37.6755    8.2195   14.0820 H   0  0  0  0  0  0  0  0  0  0  0  0
  -36.7759    6.9486   16.5381 H   0  0  0  0  0  0  0  0  0  0  0  0
  -36.6519    6.2941   15.0539 H   0  0  0  0  0  0  0  0  0  0  0  0
  -33.6569    9.1874   14.9934 H   0  0  0  0  0  0  0  0  0  0  0  0
  1  2  1  0
  1  6  1  0
  1  7  1  0
  1  8  1  0
  2  3  1  0
  2  4  1  0
  2  9  1  0
  3 10  1  0
  3 11  1  0
  4  5  3  0
  5 12  1  0
M  END
> <intraLJ>
0.883     

> <intraEL>
-1.894    

> <intraDihe>
0.827     

> <interLJ>
0.000     

> <interEJ>
0.000     

> <gridLJ>
-2.251    

> <gridEL>
0.000     

> <totalE>
-2.435    

> <LGFE>
-2.251  

> <LE>
-0.450  

> <SMILES>
C#CC(C)N

> <atom.dprop.GFE>
-0.25 -0.24 -0.98 -0.37 -0.41 0 0 0 0 0 0 0

> <atom.prop.CLASS>
PRPC PRPC GEND PRPC PRPC NCLA NCLA NCLA NCLA NCLA NCLA NCLA

$$$$
