49_2
     RDKit          3D

 19 19  0  0  1  0  0  0  0  0999 V2000
   23.9480    8.1088   -9.4262 O   0  0  0  0  0  0  0  0  0  0  0  0
   24.8802    7.1646   -8.9130 C   0  0  0  0  0  0  0  0  0  0  0  0
   24.1716    6.2932   -7.8596 C   0  0  0  0  0  0  0  0  0  0  0  0
   23.0285    5.4206   -8.3766 C   0  0  0  0  0  0  0  0  0  0  0  0
   22.1182    5.2483   -7.1416 C   0  0  0  0  0  0  0  0  0  0  0  0
   22.7780    6.0949   -6.0537 C   0  0  0  0  0  0  0  0  0  0  0  0
   23.5591    7.0969   -6.7926 N   0  0  0  0  0  0  0  0  0  0  0  0
   24.3928    8.7331  -10.0154 H   0  0  0  0  0  0  0  0  0  0  0  0
   25.2475    6.5356   -9.7270 H   0  0  0  0  0  0  0  0  0  0  0  0
   25.7247    7.6765   -8.4488 H   0  0  0  0  0  0  0  0  0  0  0  0
   24.9210    5.6344   -7.4108 H   0  0  0  0  0  0  0  0  0  0  0  0
   22.4813    5.9327   -9.1708 H   0  0  0  0  0  0  0  0  0  0  0  0
   23.4053    4.4619   -8.7354 H   0  0  0  0  0  0  0  0  0  0  0  0
   22.0602    4.2038   -6.8287 H   0  0  0  0  0  0  0  0  0  0  0  0
   21.1170    5.6280   -7.3562 H   0  0  0  0  0  0  0  0  0  0  0  0
   23.4506    5.4493   -5.4799 H   0  0  0  0  0  0  0  0  0  0  0  0
   22.0433    6.5433   -5.3788 H   0  0  0  0  0  0  0  0  0  0  0  0
   24.2755    7.5810   -6.2620 H   0  0  0  0  0  0  0  0  0  0  0  0
   22.9520    7.7784   -7.2217 H   0  0  0  0  0  0  0  0  0  0  0  0
  1  2  1  0
  1  8  1  0
  2  3  1  0
  2  9  1  0
  2 10  1  0
  3  4  1  0
  3  7  1  0
  3 11  1  0
  4  5  1  0
  4 12  1  0
  4 13  1  0
  5  6  1  0
  5 14  1  0
  5 15  1  0
  6  7  1  0
  6 16  1  0
  6 17  1  0
  7 18  1  0
  7 19  1  0
M  CHG  1   7   1
M  END
> <intraLJ>
1.103     

> <intraEL>
7.856     

> <intraDihe>
8.257     

> <interLJ>
0.000     

> <interEJ>
0.000     

> <gridLJ>
-3.470    

> <gridEL>
0.000     

> <totalE>
13.747    

> <LGFE>
-3.470  

> <LE>
-0.496  

> <SMILES>
OCC1CCC[NH2+]1

> <atom.dprop.GFE>
-0.68 -0.41 -0.37 -0.32 -0.29 -0.22 -1.2 0 0 0 0 0 0 0 0 0 0 0 0

> <atom.prop.CLASS>
MEOO PRPC PRPC PRPC PRPC PRPC MAMN NCLA NCLA NCLA NCLA NCLA NCLA NCLA NCLA NCLA NCLA NCLA NCLA

$$$$
