14_2
     RDKit          3D

 19 19  0  0  1  0  0  0  0  0999 V2000
    2.2615   -4.6847   -3.2542 C   0  0  0  0  0  0  0  0  0  0  0  0
    1.8054   -3.8622   -4.3919 N   0  0  0  0  0  0  0  0  0  0  0  0
    0.4668   -4.2748   -4.8324 C   0  0  0  0  0  0  0  0  0  0  0  0
   -0.0742   -3.0262   -5.5562 C   0  0  0  0  0  0  0  0  0  0  0  0
    0.9328   -1.9197   -5.2296 C   0  0  0  0  0  0  0  0  0  0  0  0
    1.8856   -1.8677   -6.2813 O   0  0  0  0  0  0  0  0  0  0  0  0
    1.6464   -2.4622   -3.9859 C   0  0  0  0  0  0  0  0  0  0  0  0
    2.3437   -5.7120   -3.5894 H   0  0  0  0  0  0  0  0  0  0  0  0
    1.5382   -4.6005   -2.4509 H   0  0  0  0  0  0  0  0  0  0  0  0
    3.2297   -4.3136   -2.9364 H   0  0  0  0  0  0  0  0  0  0  0  0
    2.4454   -3.8746   -5.1871 H   0  0  0  0  0  0  0  0  0  0  0  0
    0.5227   -5.1089   -5.5240 H   0  0  0  0  0  0  0  0  0  0  0  0
   -0.1652   -4.4770   -3.9744 H   0  0  0  0  0  0  0  0  0  0  0  0
   -1.0616   -2.7743   -5.1658 H   0  0  0  0  0  0  0  0  0  0  0  0
   -0.1352   -3.1996   -6.6307 H   0  0  0  0  0  0  0  0  0  0  0  0
    0.4523   -0.9492   -5.0813 H   0  0  0  0  0  0  0  0  0  0  0  0
    1.5446   -1.3370   -7.0114 H   0  0  0  0  0  0  0  0  0  0  0  0
    0.9895   -2.3789   -3.1282 H   0  0  0  0  0  0  0  0  0  0  0  0
    2.6040   -1.9673   -3.8681 H   0  0  0  0  0  0  0  0  0  0  0  0
  1  2  1  0
  1  8  1  0
  1  9  1  0
  1 10  1  0
  2  3  1  0
  2  7  1  0
  2 11  1  0
  3  4  1  0
  3 12  1  0
  3 13  1  0
  4  5  1  0
  4 14  1  0
  4 15  1  0
  5  6  1  0
  5  7  1  0
  5 16  1  0
  6 17  1  0
  7 18  1  0
  7 19  1  0
M  CHG  1   2   1
M  END
> <intraLJ>
3.793     

> <intraEL>
3.185     

> <intraDihe>
12.263    

> <interLJ>
0.000     

> <interEJ>
0.000     

> <gridLJ>
-3.729    

> <gridEL>
0.000     

> <totalE>
15.511    

> <LGFE>
-3.729  

> <LE>
-0.533  

> <SMILES>
C[NH+]1CCC(O)C1

> <atom.dprop.GFE>
-0.23 0.41 -0.52 -0.44 -0.57 -1.8 -0.58 0 0 0 0 0 0 0 0 0 0 0 0

> <atom.prop.CLASS>
PRPC MAMN PRPC PRPC PRPC MEOO PRPC NCLA NCLA NCLA NCLA NCLA NCLA NCLA NCLA NCLA NCLA NCLA NCLA

$$$$
