48_2
     RDKit          3D

 18 17  0  0  1  0  0  0  0  0999 V2000
  -25.6141    3.1428   20.5914 C   0  0  0  0  0  0  0  0  0  0  0  0
  -24.6775    4.3233   20.9083 C   0  0  0  0  0  0  0  0  0  0  0  0
  -23.7854    4.1004   22.1412 C   0  0  0  0  0  0  0  0  0  0  0  0
  -23.0298    5.3462   22.4391 N   0  0  0  0  0  0  0  0  0  0  0  0
  -22.8230    2.8933   21.9308 C   0  0  0  0  0  0  0  0  0  0  0  0
  -22.5884    2.1597   22.8780 O   0  0  0  0  0  0  0  0  0  0  0  0
  -22.2770    2.6264   20.7516 N   0  0  0  0  0  0  0  0  0  0  0  0
  -26.1313    3.3394   19.6485 H   0  0  0  0  0  0  0  0  0  0  0  0
  -26.3730    3.0167   21.3643 H   0  0  0  0  0  0  0  0  0  0  0  0
  -25.0445    2.2181   20.4775 H   0  0  0  0  0  0  0  0  0  0  0  0
  -25.2733    5.2281   21.0463 H   0  0  0  0  0  0  0  0  0  0  0  0
  -24.0350    4.4853   20.0405 H   0  0  0  0  0  0  0  0  0  0  0  0
  -24.4323    3.8563   22.9863 H   0  0  0  0  0  0  0  0  0  0  0  0
  -22.3347    5.4564   21.7098 H   0  0  0  0  0  0  0  0  0  0  0  0
  -22.5115    5.2264   23.2983 H   0  0  0  0  0  0  0  0  0  0  0  0
  -23.6425    6.1448   22.4799 H   0  0  0  0  0  0  0  0  0  0  0  0
  -21.6703    1.8180   20.7107 H   0  0  0  0  0  0  0  0  0  0  0  0
  -22.4254    3.1901   19.9292 H   0  0  0  0  0  0  0  0  0  0  0  0
  1  2  1  0
  1  8  1  0
  1  9  1  0
  1 10  1  0
  2  3  1  0
  2 11  1  0
  2 12  1  0
  3  4  1  0
  3  5  1  0
  3 13  1  0
  4 14  1  0
  4 15  1  0
  4 16  1  0
  5  6  2  0
  5  7  1  0
  7 17  1  0
  7 18  1  0
M  CHG  1   4   1
M  END
> <intraLJ>
0.577     

> <intraEL>
2.521     

> <intraDihe>
1.144     

> <interLJ>
0.000     

> <interEJ>
0.000     

> <gridLJ>
-4.880    

> <gridEL>
0.000     

> <totalE>
-0.638    

> <LGFE>
-4.880  

> <LE>
-0.697  

> <SMILES>
CCC([NH3+])C(N)=O

> <atom.dprop.GFE>
-0.3 -0.12 0.038 -1.6 0 -1.9 -1 0 0 0 0 0 0 0 0 0 0 0

> <atom.prop.CLASS>
PRPC PRPC PRPC MAMN NCLA GENA GEND NCLA NCLA NCLA NCLA NCLA NCLA NCLA NCLA NCLA NCLA NCLA

$$$$
