17_2
     RDKit          3D

 16 16  0  0  0  0  0  0  0  0999 V2000
  -29.3147   15.9930   24.7148 N   0  0  0  0  0  0  0  0  0  0  0  0
  -29.4272   15.5710   25.9880 C   0  0  0  0  0  0  0  0  0  0  0  0
  -29.0722   14.4370   26.2217 O   0  0  0  0  0  0  0  0  0  0  0  0
  -29.9733   16.4358   27.1489 C   0  0  0  0  0  0  0  0  0  0  0  0
  -31.3956   16.2572   27.3987 N   0  0  0  0  0  0  0  0  0  0  0  0
  -29.4254   17.8099   27.3667 C   0  0  0  0  0  0  0  0  0  0  0  0
  -29.1132   16.6908   28.3452 C   0  0  0  0  0  0  0  0  0  0  0  0
  -28.9448   15.3415   24.0382 H   0  0  0  0  0  0  0  0  0  0  0  0
  -29.5839   16.9190   24.4255 H   0  0  0  0  0  0  0  0  0  0  0  0
  -31.6879   15.5305   26.6578 H   0  0  0  0  0  0  0  0  0  0  0  0
  -31.8803   17.1891   27.2376 H   0  0  0  0  0  0  0  0  0  0  0  0
  -31.5156   15.8771   28.3829 H   0  0  0  0  0  0  0  0  0  0  0  0
  -30.1018   18.5783   27.7203 H   0  0  0  0  0  0  0  0  0  0  0  0
  -28.6144   18.1267   26.7220 H   0  0  0  0  0  0  0  0  0  0  0  0
  -28.1031   16.2988   28.3224 H   0  0  0  0  0  0  0  0  0  0  0  0
  -29.5929   16.7563   29.3137 H   0  0  0  0  0  0  0  0  0  0  0  0
  1  2  1  0
  1  8  1  0
  1  9  1  0
  2  3  2  0
  2  4  1  0
  4  5  1  0
  4  6  1  0
  4  7  1  0
  5 10  1  0
  5 11  1  0
  5 12  1  0
  6  7  1  0
  6 13  1  0
  6 14  1  0
  7 15  1  0
  7 16  1  0
M  CHG  1   5   1
M  END
> <intraLJ>
-0.440    

> <intraEL>
0.104     

> <intraDihe>
6.322     

> <interLJ>
0.000     

> <interEJ>
0.000     

> <gridLJ>
-2.935    

> <gridEL>
0.000     

> <totalE>
3.052     

> <LGFE>
-2.935  

> <LE>
-0.419  

> <SMILES>
NC(=O)C1([NH3+])CC1

> <atom.dprop.GFE>
-0.37 0 -1 -0.28 -0.79 -0.2 -0.29 0 0 0 0 0 0 0 0 0

> <atom.prop.CLASS>
GEND NCLA GENA PRPC MAMN PRPC PRPC NCLA NCLA NCLA NCLA NCLA NCLA NCLA NCLA NCLA

$$$$
