67
     RDKit          3D

 15 15  0  0  1  0  0  0  0  0999 V2000
    2.9968   12.5268   -9.5980 O   0  0  0  0  0  0  0  0  0  0  0  0
    2.1192   11.4105   -9.4397 C   0  0  0  0  0  0  0  0  0  0  0  0
    2.8418   10.1203   -9.0615 C   0  0  0  0  0  0  0  0  0  0  0  0
    1.8246    9.3045   -8.5103 O   0  0  0  0  0  0  0  0  0  0  0  0
    0.9952   10.1491   -7.7214 C   0  0  0  0  0  0  0  0  0  0  0  0
    1.1678   11.5822   -8.2442 C   0  0  0  0  0  0  0  0  0  0  0  0
    1.7732   12.4038   -7.2600 O   0  0  0  0  0  0  0  0  0  0  0  0
    3.5243   12.4074  -10.3947 H   0  0  0  0  0  0  0  0  0  0  0  0
    1.5328   11.2435  -10.3448 H   0  0  0  0  0  0  0  0  0  0  0  0
    3.6022   10.3298   -8.3069 H   0  0  0  0  0  0  0  0  0  0  0  0
    3.2921    9.6468   -9.9347 H   0  0  0  0  0  0  0  0  0  0  0  0
   -0.0462    9.8351   -7.8031 H   0  0  0  0  0  0  0  0  0  0  0  0
    1.3077   10.1024   -6.6767 H   0  0  0  0  0  0  0  0  0  0  0  0
    0.2142   12.0011   -8.5683 H   0  0  0  0  0  0  0  0  0  0  0  0
    2.4232   12.9315   -7.7491 H   0  0  0  0  0  0  0  0  0  0  0  0
  1  2  1  0
  1  8  1  0
  2  3  1  0
  2  6  1  0
  2  9  1  0
  3  4  1  0
  3 10  1  0
  3 11  1  0
  4  5  1  0
  5  6  1  0
  5 12  1  0
  5 13  1  0
  6  7  1  0
  6 14  1  0
  7 15  1  0
M  END
> <intraLJ>
4.089     

> <intraEL>
1.909     

> <intraDihe>
14.436    

> <interLJ>
0.000     

> <interEJ>
0.000     

> <gridLJ>
-2.654    

> <gridEL>
0.000     

> <totalE>
17.780    

> <LGFE>
-2.654  

> <LE>
-0.379  

> <SMILES>
OC1COCC1O

> <atom.dprop.GFE>
-0.51 -0.23 -0.2 -0.74 -0.26 -0.14 -0.59 0 0 0 0 0 0 0 0

> <atom.prop.CLASS>
MEOO PRPC PRPC GENA PRPC PRPC MEOO NCLA NCLA NCLA NCLA NCLA NCLA NCLA NCLA

$$$$
