35_2
     RDKit          3D

 10 10  0  0  0  0  0  0  0  0999 V2000
    8.9629   15.1578   -9.9109 N   0  0  0  0  0  0  0  0  0  0  0  0
    9.7215   16.2899  -10.1438 C   0  0  0  0  0  0  0  0  0  0  0  0
   10.0247   16.7128  -11.3638 N   0  0  0  0  0  0  0  0  0  0  0  0
   10.7580   17.8180  -11.2089 C   0  0  0  0  0  0  0  0  0  0  0  0
   10.9045   18.0639   -9.9501 N   0  0  0  0  0  0  0  0  0  0  0  0
   10.2357   17.0713   -9.2509 N   0  0  0  0  0  0  0  0  0  0  0  0
    8.6500   15.1151   -8.9289 H   0  0  0  0  0  0  0  0  0  0  0  0
    8.2161   14.9743  -10.5929 H   0  0  0  0  0  0  0  0  0  0  0  0
    9.7538   16.2546  -12.2425 H   0  0  0  0  0  0  0  0  0  0  0  0
   11.1376   18.3644  -12.0340 H   0  0  0  0  0  0  0  0  0  0  0  0
  1  2  1  0
  1  7  1  0
  1  8  1  0
  2  3  1  0
  2  6  2  0
  3  4  1  0
  3  9  1  0
  4  5  2  0
  4 10  1  0
  5  6  1  0
M  END
> <intraLJ>
-0.237    

> <intraEL>
-7.007    

> <intraDihe>
2.733     

> <interLJ>
0.000     

> <interEJ>
0.000     

> <gridLJ>
-3.073    

> <gridEL>
0.000     

> <totalE>
-7.585    

> <LGFE>
-3.073  

> <LE>
-0.512  

> <SMILES>
Nc1nnc[nH]1

> <atom.dprop.GFE>
-0.78 -0.15 -0.87 -0.18 -0.42 -0.68 0 0 0 0

> <atom.prop.CLASS>
GEND GEHC GEND GEHC GENA GENA NCLA NCLA NCLA NCLA

$$$$
