35_2
     RDKit          3D

 10 10  0  0  0  0  0  0  0  0999 V2000
   14.7774   14.2656  -29.2791 N   0  0  0  0  0  0  0  0  0  0  0  0
   14.3053   15.5407  -29.0286 C   0  0  0  0  0  0  0  0  0  0  0  0
   13.0255   15.7998  -28.7962 N   0  0  0  0  0  0  0  0  0  0  0  0
   12.9370   17.1174  -28.5980 C   0  0  0  0  0  0  0  0  0  0  0  0
   14.1086   17.6483  -28.7074 N   0  0  0  0  0  0  0  0  0  0  0  0
   15.0034   16.6285  -28.9913 N   0  0  0  0  0  0  0  0  0  0  0  0
   15.8063   14.2305  -29.2147 H   0  0  0  0  0  0  0  0  0  0  0  0
   14.3036   13.5077  -28.7715 H   0  0  0  0  0  0  0  0  0  0  0  0
   12.2644   15.1097  -28.7922 H   0  0  0  0  0  0  0  0  0  0  0  0
   12.0148   17.5968  -28.3905 H   0  0  0  0  0  0  0  0  0  0  0  0
  1  2  1  0
  1  7  1  0
  1  8  1  0
  2  3  1  0
  2  6  2  0
  3  4  1  0
  3  9  1  0
  4  5  2  0
  4 10  1  0
  5  6  1  0
M  END
> <intraLJ>
-0.237    

> <intraEL>
-7.007    

> <intraDihe>
2.733     

> <interLJ>
0.000     

> <interEJ>
0.000     

> <gridLJ>
-5.132    

> <gridEL>
0.000     

> <totalE>
-9.644    

> <LGFE>
-5.132  

> <LE>
-0.855  

> <SMILES>
Nc1nnc[nH]1

> <atom.dprop.GFE>
-0.94 -0.41 -1.7 -0.26 -0.65 -1.2 0 0 0 0

> <atom.prop.CLASS>
GEND GEHC GEND GEHC GENA GENA NCLA NCLA NCLA NCLA

$$$$
