70_1
     RDKit          3D

 12 12  0  0  0  0  0  0  0  0999 V2000
   -9.9330   -8.5706    2.6046 N   0  0  0  0  0  0  0  0  0  0  0  0
   -8.5611   -8.2474    2.5693 C   0  0  0  0  0  0  0  0  0  0  0  0
   -7.6885   -8.3017    1.5372 C   0  0  0  0  0  0  0  0  0  0  0  0
   -6.4786   -7.8718    2.0634 C   0  0  0  0  0  0  0  0  0  0  0  0
   -5.3035   -7.7541    1.4337 O   0  0  0  0  0  0  0  0  0  0  0  0
   -6.5194   -7.5544    3.3171 N   0  0  0  0  0  0  0  0  0  0  0  0
   -7.8468   -7.7866    3.6377 N   0  0  0  0  0  0  0  0  0  0  0  0
  -10.2958   -8.8981    3.5130 H   0  0  0  0  0  0  0  0  0  0  0  0
  -10.2414   -9.1622    1.8146 H   0  0  0  0  0  0  0  0  0  0  0  0
   -7.8833   -8.6021    0.5431 H   0  0  0  0  0  0  0  0  0  0  0  0
   -4.7467   -7.4206    2.1624 H   0  0  0  0  0  0  0  0  0  0  0  0
   -8.2522   -7.6192    4.5741 H   0  0  0  0  0  0  0  0  0  0  0  0
  1  2  1  0
  1  8  1  0
  1  9  1  0
  2  3  2  0
  2  7  1  0
  3  4  1  0
  3 10  1  0
  4  5  1  0
  4  6  2  0
  5 11  1  0
  6  7  1  0
  7 12  1  0
M  END
> <intraLJ>
-0.707    

> <intraEL>
-16.624   

> <intraDihe>
2.009     

> <interLJ>
0.000     

> <interEJ>
0.000     

> <gridLJ>
-4.939    

> <gridEL>
0.000     

> <totalE>
-20.261   

> <LGFE>
-4.939  

> <LE>
-0.706  

> <SMILES>
Nc1cc(O)n[nH]1

> <atom.dprop.GFE>
-1 -0.17 -0.26 -0.27 -1.1 -1.3 -0.74 0 0 0 0 0

> <atom.prop.CLASS>
GEND GEHC GEHC GEHC MEOO GENA GEND NCLA NCLA NCLA NCLA NCLA

$$$$
