59_1
     RDKit          3D

 10  9  0  0  0  0  0  0  0  0999 V2000
  -21.1731    7.5945  -11.4069 C   0  0  0  0  0  0  0  0  0  0  0  0
  -21.9042    6.4419  -10.7534 C   0  0  0  0  0  0  0  0  0  0  0  0
  -22.9311    6.0539  -11.2781 O   0  0  0  0  0  0  0  0  0  0  0  0
  -21.3602    5.8318   -9.5224 C   0  0  0  0  0  0  0  0  0  0  0  0
  -21.9952    5.1424   -8.7474 O   0  0  0  0  0  0  0  0  0  0  0  0
  -20.1038    5.9812   -9.1413 O   0  0  0  0  0  0  0  0  0  0  0  0
  -20.1853    7.2365  -11.6616 H   0  0  0  0  0  0  0  0  0  0  0  0
  -21.1200    8.3894  -10.6751 H   0  0  0  0  0  0  0  0  0  0  0  0
  -21.7336    7.8893  -12.2831 H   0  0  0  0  0  0  0  0  0  0  0  0
  -20.0905    5.4614   -8.3157 H   0  0  0  0  0  0  0  0  0  0  0  0
  1  2  1  0
  1  7  1  0
  1  8  1  0
  1  9  1  0
  2  3  2  0
  2  4  1  0
  4  5  2  0
  4  6  1  0
  6 10  1  0
M  END
> <intraLJ>
-0.431    

> <intraEL>
-0.016    

> <intraDihe>
2.179     

> <interLJ>
0.000     

> <interEJ>
0.000     

> <gridLJ>
-2.372    

> <gridEL>
0.000     

> <totalE>
-0.641    

> <LGFE>
-2.372  

> <LE>
-0.395  

> <SMILES>
CC(=O)C(=O)O

> <atom.dprop.GFE>
-0.19 0 -0.53 0 -0.95 -0.7 0 0 0 0

> <atom.prop.CLASS>
PRPC NCLA GENA NCLA GENA MEOO NCLA NCLA NCLA NCLA

$$$$
