53
     RDKit          3D

 16 16  0  0  0  0  0  0  0  0999 V2000
   14.8967    5.9239   -2.8825 O   0  0  0  0  0  0  0  0  0  0  0  0
   16.0192    5.9264   -3.3613 C   0  0  0  0  0  0  0  0  0  0  0  0
   17.2015    5.2548   -2.6667 C   0  0  0  0  0  0  0  0  0  0  0  0
   18.4667    6.1443   -2.6979 C   0  0  0  0  0  0  0  0  0  0  0  0
   18.6110    6.9563   -4.0118 C   0  0  0  0  0  0  0  0  0  0  0  0
   17.6068    6.5277   -5.0920 C   0  0  0  0  0  0  0  0  0  0  0  0
   16.2810    6.5624   -4.4963 N   0  0  0  0  0  0  0  0  0  0  0  0
   17.4058    4.3217   -3.1905 H   0  0  0  0  0  0  0  0  0  0  0  0
   16.9312    5.0268   -1.6351 H   0  0  0  0  0  0  0  0  0  0  0  0
   19.3459    5.5132   -2.5554 H   0  0  0  0  0  0  0  0  0  0  0  0
   18.4193    6.8478   -1.8638 H   0  0  0  0  0  0  0  0  0  0  0  0
   19.6255    6.8533   -4.3992 H   0  0  0  0  0  0  0  0  0  0  0  0
   18.4397    8.0109   -3.7901 H   0  0  0  0  0  0  0  0  0  0  0  0
   17.8393    5.5181   -5.4371 H   0  0  0  0  0  0  0  0  0  0  0  0
   17.6612    7.2155   -5.9386 H   0  0  0  0  0  0  0  0  0  0  0  0
   15.5150    7.0358   -4.9462 H   0  0  0  0  0  0  0  0  0  0  0  0
  1  2  2  0
  2  3  1  0
  2  7  1  0
  3  4  1  0
  3  8  1  0
  3  9  1  0
  4  5  1  0
  4 10  1  0
  4 11  1  0
  5  6  1  0
  5 12  1  0
  5 13  1  0
  6  7  1  0
  6 14  1  0
  6 15  1  0
  7 16  1  0
M  END
> <intraLJ>
0.344     

> <intraEL>
-2.405    

> <intraDihe>
10.947    

> <interLJ>
0.000     

> <interEJ>
0.000     

> <gridLJ>
-3.218    

> <gridEL>
0.000     

> <totalE>
5.667     

> <LGFE>
-3.218  

> <LE>
-0.460  

> <SMILES>
O=C1CCCCN1

> <atom.dprop.GFE>
-0.37 0 -0.38 -0.43 -0.51 -0.55 -0.98 0 0 0 0 0 0 0 0 0

> <atom.prop.CLASS>
GENA NCLA PRPC PRPC PRPC PRPC GEND NCLA NCLA NCLA NCLA NCLA NCLA NCLA NCLA NCLA

$$$$
