64_2
     RDKit          3D

 15 15  0  0  0  0  0  0  0  0999 V2000
  -12.9139  -11.5930   -4.1171 N   0  0  0  0  0  0  0  0  0  0  0  0
  -13.0381  -12.9395   -4.6421 C   0  0  0  0  0  0  0  0  0  0  0  0
  -11.8368  -13.6032   -4.0262 C   0  0  0  0  0  0  0  0  0  0  0  0
  -11.8400  -14.2407   -2.7674 C   0  0  0  0  0  0  0  0  0  0  0  0
  -10.6317  -14.7887   -2.4479 C   0  0  0  0  0  0  0  0  0  0  0  0
   -9.4585  -14.5340   -3.6872 S   0  0  0  0  0  0  0  0  0  0  0  0
  -10.6164  -13.6779   -4.6399 C   0  0  0  0  0  0  0  0  0  0  0  0
  -13.6687  -11.0173   -4.4574 H   0  0  0  0  0  0  0  0  0  0  0  0
  -12.0090  -11.2486   -4.4055 H   0  0  0  0  0  0  0  0  0  0  0  0
  -12.9148  -11.6694   -3.1102 H   0  0  0  0  0  0  0  0  0  0  0  0
  -12.9432  -12.9542   -5.7229 H   0  0  0  0  0  0  0  0  0  0  0  0
  -13.9412  -13.4206   -4.2820 H   0  0  0  0  0  0  0  0  0  0  0  0
  -12.6772  -14.2921   -2.1167 H   0  0  0  0  0  0  0  0  0  0  0  0
  -10.3735  -15.3139   -1.5630 H   0  0  0  0  0  0  0  0  0  0  0  0
  -10.3308  -13.2831   -5.5831 H   0  0  0  0  0  0  0  0  0  0  0  0
  1  2  1  0
  1  8  1  0
  1  9  1  0
  1 10  1  0
  2  3  1  0
  2 11  1  0
  2 12  1  0
  3  4  1  0
  3  7  2  0
  4  5  2  0
  4 13  1  0
  5  6  1  0
  5 14  1  0
  6  7  1  0
  7 15  1  0
M  CHG  1   1   1
M  END
> <intraLJ>
1.008     

> <intraEL>
2.904     

> <intraDihe>
9.539     

> <interLJ>
0.000     

> <interEJ>
0.000     

> <gridLJ>
-2.133    

> <gridEL>
0.000     

> <totalE>
11.319    

> <LGFE>
-2.133  

> <LE>
-0.305  

> <SMILES>
[NH3+]Cc1ccsc1

> <atom.dprop.GFE>
-1.8 -0.0057 -0.041 -0.035 -0.035 -0.21 -0.049 0 0 0 0 0 0 0 0

> <atom.prop.CLASS>
MAMN PRPC GEHC GEHC GEHC PRPC GEHC NCLA NCLA NCLA NCLA NCLA NCLA NCLA NCLA

$$$$
