26_2
     RDKit          3D

 13 13  0  0  0  0  0  0  0  0999 V2000
   10.1353   15.2564   -8.5522 O   0  0  0  0  0  0  0  0  0  0  0  0
    8.9380   15.5331   -9.3202 C   0  0  0  0  0  0  0  0  0  0  0  0
    9.1715   16.8839   -9.9577 C   0  0  0  0  0  0  0  0  0  0  0  0
    8.5804   18.0860   -9.7689 C   0  0  0  0  0  0  0  0  0  0  0  0
    9.1999   18.9826  -10.6332 C   0  0  0  0  0  0  0  0  0  0  0  0
   10.1307   18.3945  -11.3322 N   0  0  0  0  0  0  0  0  0  0  0  0
   10.1071   17.0999  -10.9093 N   0  0  0  0  0  0  0  0  0  0  0  0
   10.0571   14.3948   -8.1084 H   0  0  0  0  0  0  0  0  0  0  0  0
    8.0836   15.6000   -8.6572 H   0  0  0  0  0  0  0  0  0  0  0  0
    8.8219   14.7915  -10.1003 H   0  0  0  0  0  0  0  0  0  0  0  0
    7.7950   18.3064   -9.0951 H   0  0  0  0  0  0  0  0  0  0  0  0
    8.9650   20.0124  -10.7281 H   0  0  0  0  0  0  0  0  0  0  0  0
   10.7339   16.3556  -11.2724 H   0  0  0  0  0  0  0  0  0  0  0  0
  1  2  1  0
  1  8  1  0
  2  3  1  0
  2  9  1  0
  2 10  1  0
  3  4  2  0
  3  7  1  0
  4  5  1  0
  4 11  1  0
  5  6  2  0
  5 12  1  0
  6  7  1  0
  7 13  1  0
M  END
> <intraLJ>
0.098     

> <intraEL>
1.017     

> <intraDihe>
1.716     

> <interLJ>
0.000     

> <interEJ>
0.000     

> <gridLJ>
-2.319    

> <gridEL>
0.000     

> <totalE>
0.512     

> <LGFE>
-2.319  

> <LE>
-0.331  

> <SMILES>
OCc1ccn[nH]1

> <atom.dprop.GFE>
-0.56 -0.34 -0.15 -0.11 -0.1 -0.2 -0.87 0 0 0 0 0 0

> <atom.prop.CLASS>
MEOO PRPC GEHC GEHC GEHC GENA GEND NCLA NCLA NCLA NCLA NCLA NCLA

$$$$
