30_2
     RDKit          3D

 16 16  0  0  1  0  0  0  0  0999 V2000
    1.7012    4.9740  -25.0657 N   0  0  0  0  0  0  0  0  0  0  0  0
    1.9164    6.4350  -25.2475 C   0  0  0  0  0  0  0  0  0  0  0  0
    0.9245    7.2843  -24.4337 C   0  0  0  0  0  0  0  0  0  0  0  0
    0.7260    8.5250  -25.3280 C   0  0  0  0  0  0  0  0  0  0  0  0
    0.9297    8.0121  -26.6689 N   0  0  0  0  0  0  0  0  0  0  0  0
    1.6523    6.9110  -26.6795 C   0  0  0  0  0  0  0  0  0  0  0  0
    1.9203    6.2405  -27.6647 O   0  0  0  0  0  0  0  0  0  0  0  0
    1.9370    4.6732  -24.1333 H   0  0  0  0  0  0  0  0  0  0  0  0
    2.2729    4.4962  -25.7547 H   0  0  0  0  0  0  0  0  0  0  0  0
    0.7411    4.7505  -25.2881 H   0  0  0  0  0  0  0  0  0  0  0  0
    2.9400    6.7185  -24.9916 H   0  0  0  0  0  0  0  0  0  0  0  0
   -0.0322    6.7696  -24.3332 H   0  0  0  0  0  0  0  0  0  0  0  0
    1.3229    7.5567  -23.4560 H   0  0  0  0  0  0  0  0  0  0  0  0
    1.4740    9.2892  -25.0998 H   0  0  0  0  0  0  0  0  0  0  0  0
   -0.2782    8.9403  -25.2028 H   0  0  0  0  0  0  0  0  0  0  0  0
    0.6148    8.4689  -27.5163 H   0  0  0  0  0  0  0  0  0  0  0  0
  1  2  1  0
  1  8  1  0
  1  9  1  0
  1 10  1  0
  2  3  1  0
  2  6  1  0
  2 11  1  0
  3  4  1  0
  3 12  1  0
  3 13  1  0
  4  5  1  0
  4 14  1  0
  4 15  1  0
  5  6  1  0
  5 16  1  0
  6  7  2  0
M  CHG  1   1   1
M  END
> <intraLJ>
-0.328    

> <intraEL>
0.050     

> <intraDihe>
6.834     

> <interLJ>
0.000     

> <interEJ>
0.000     

> <gridLJ>
-2.902    

> <gridEL>
0.000     

> <totalE>
3.653     

> <LGFE>
-2.902  

> <LE>
-0.415  

> <SMILES>
[NH3+]C1CCNC1=O

> <atom.dprop.GFE>
-0.85 -0.17 -0.25 -0.14 -0.38 -0.13 -0.98 0 0 0 0 0 0 0 0 0

> <atom.prop.CLASS>
MAMN PRPC PRPC PRPC GEND GEHC GENA NCLA NCLA NCLA NCLA NCLA NCLA NCLA NCLA NCLA

$$$$
