27_2
     RDKit          3D

 12 12  0  0  0  0  0  0  0  0999 V2000
   12.9681   20.5015  -26.3178 N   0  0  0  0  0  0  0  0  0  0  0  0
   12.0782   20.4960  -27.2814 C   0  0  0  0  0  0  0  0  0  0  0  0
   11.5421   19.4240  -27.8181 N   0  0  0  0  0  0  0  0  0  0  0  0
   10.6500   19.8138  -28.8011 C   0  0  0  0  0  0  0  0  0  0  0  0
   10.6748   21.1624  -28.8313 C   0  0  0  0  0  0  0  0  0  0  0  0
   11.5817   21.5624  -27.8653 N   0  0  0  0  0  0  0  0  0  0  0  0
   13.3351   21.3905  -25.9578 H   0  0  0  0  0  0  0  0  0  0  0  0
   13.3021   19.6172  -25.9178 H   0  0  0  0  0  0  0  0  0  0  0  0
   11.7748   18.4652  -27.5245 H   0  0  0  0  0  0  0  0  0  0  0  0
   10.0867   19.1248  -29.3821 H   0  0  0  0  0  0  0  0  0  0  0  0
   10.1375   21.8452  -29.4427 H   0  0  0  0  0  0  0  0  0  0  0  0
   11.8505   22.5232  -27.6150 H   0  0  0  0  0  0  0  0  0  0  0  0
  1  2  2  0
  1  7  1  0
  1  8  1  0
  2  3  1  0
  2  6  1  0
  3  4  1  0
  3  9  1  0
  4  5  2  0
  4 10  1  0
  5  6  1  0
  5 11  1  0
  6 12  1  0
M  CHG  1   1   1
M  END
> <intraLJ>
-0.384    

> <intraEL>
3.349     

> <intraDihe>
0.000     

> <interLJ>
0.000     

> <interEJ>
0.000     

> <gridLJ>
-2.727    

> <gridEL>
0.000     

> <totalE>
0.238     

> <LGFE>
-2.727  

> <LE>
-0.454  

> <SMILES>
[NH2+]=c1[nH]cc[nH]1

> <atom.dprop.GFE>
-1.6 -1.1 0 -0.001 -0.015 0 0 0 0 0 0 0

> <atom.prop.CLASS>
MAMN MAMC NCLA GEHC GEHC NCLA NCLA NCLA NCLA NCLA NCLA NCLA

$$$$
