37_1
     RDKit          3D

 12 11  0  0  1  0  0  0  0  0999 V2000
  -26.8290  -15.5196    7.6215 C   0  0  0  0  0  0  0  0  0  0  0  0
  -25.6959  -16.3153    8.2894 C   0  0  0  0  0  0  0  0  0  0  0  0
  -25.9322  -17.7128    7.9433 O   0  0  0  0  0  0  0  0  0  0  0  0
  -25.7804  -16.1312    9.8112 C   0  0  0  0  0  0  0  0  0  0  0  0
  -26.1340  -16.9920   10.6088 O   0  0  0  0  0  0  0  0  0  0  0  0
  -25.5292  -14.9296   10.3672 O   0  0  0  0  0  0  0  0  0  0  0  0
  -26.6911  -14.4628    7.8528 H   0  0  0  0  0  0  0  0  0  0  0  0
  -27.7859  -15.8758    8.0048 H   0  0  0  0  0  0  0  0  0  0  0  0
  -26.7670  -15.6836    6.5454 H   0  0  0  0  0  0  0  0  0  0  0  0
  -24.7329  -15.9780    7.9275 H   0  0  0  0  0  0  0  0  0  0  0  0
  -26.6379  -18.0712    8.5143 H   0  0  0  0  0  0  0  0  0  0  0  0
  -25.6662  -15.0806   11.3037 H   0  0  0  0  0  0  0  0  0  0  0  0
  1  2  1  0
  1  7  1  0
  1  8  1  0
  1  9  1  0
  2  3  1  0
  2  4  1  0
  2 10  1  0
  3 11  1  0
  4  5  2  0
  4  6  1  0
  6 12  1  0
M  END
> <intraLJ>
-0.233    

> <intraEL>
3.041     

> <intraDihe>
2.580     

> <interLJ>
0.000     

> <interEJ>
0.000     

> <gridLJ>
-2.466    

> <gridEL>
0.000     

> <totalE>
2.921     

> <LGFE>
-2.466  

> <LE>
-0.411  

> <SMILES>
CC(O)C(=O)O

> <atom.dprop.GFE>
-0.18 -0.33 -0.38 0 -0.88 -0.69 0 0 0 0 0 0

> <atom.prop.CLASS>
PRPC PRPC MEOO NCLA GENA MEOO NCLA NCLA NCLA NCLA NCLA NCLA

$$$$
