11_2
     RDKit          3D

 10 10  0  0  0  0  0  0  0  0999 V2000
  -13.4978  -11.2593  -18.5717 O   0  0  0  0  0  0  0  0  0  0  0  0
  -14.7589  -11.0798  -18.6395 C   0  0  0  0  0  0  0  0  0  0  0  0
  -15.3674  -10.5942  -19.9091 C   0  0  0  0  0  0  0  0  0  0  0  0
  -16.8269  -10.9264  -19.6163 C   0  0  0  0  0  0  0  0  0  0  0  0
  -16.8755  -10.9673  -18.1743 O   0  0  0  0  0  0  0  0  0  0  0  0
  -15.6047  -11.2556  -17.6884 N   0  0  0  0  0  0  0  0  0  0  0  0
  -14.9892  -11.1622  -20.7446 H   0  0  0  0  0  0  0  0  0  0  0  0
  -15.2179   -9.5272  -19.9620 H   0  0  0  0  0  0  0  0  0  0  0  0
  -17.0646  -11.9161  -20.0057 H   0  0  0  0  0  0  0  0  0  0  0  0
  -17.5003  -10.1687  -20.0114 H   0  0  0  0  0  0  0  0  0  0  0  0
  1  2  1  0
  2  3  1  0
  2  6  2  0
  3  4  1  0
  3  7  1  0
  3  8  1  0
  4  5  1  0
  4  9  1  0
  4 10  1  0
  5  6  1  0
M  CHG  1   1  -1
M  END
> <intraLJ>
-0.206    

> <intraEL>
-2.183    

> <intraDihe>
20.149    

> <interLJ>
0.000     

> <interEJ>
0.000     

> <gridLJ>
-1.998    

> <gridEL>
0.000     

> <totalE>
15.762    

> <LGFE>
-1.998  

> <LE>
-0.333  

> <SMILES>
[O-]C1=NOCC1

> <atom.dprop.GFE>
0 -1.3 -0.19 -0.21 -0.17 -0.16 0 0 0 0

> <atom.prop.CLASS>
NCLA ACEC PRPC PRPC GENA GENA NCLA NCLA NCLA NCLA

$$$$
