11_1
     RDKit          3D

 11 11  0  0  0  0  0  0  0  0999 V2000
    1.9088    5.9840  -32.7546 O   0  0  0  0  0  0  0  0  0  0  0  0
    1.3328    5.4954  -33.7056 C   0  0  0  0  0  0  0  0  0  0  0  0
   -0.0798    5.7170  -34.1397 C   0  0  0  0  0  0  0  0  0  0  0  0
    0.0004    5.2187  -35.5979 C   0  0  0  0  0  0  0  0  0  0  0  0
    1.1177    4.2689  -35.6111 O   0  0  0  0  0  0  0  0  0  0  0  0
    1.9343    4.6525  -34.5443 N   0  0  0  0  0  0  0  0  0  0  0  0
   -0.3411    6.7640  -34.0896 H   0  0  0  0  0  0  0  0  0  0  0  0
   -0.7156    5.0589  -33.5670 H   0  0  0  0  0  0  0  0  0  0  0  0
    0.2308    6.0509  -36.2657 H   0  0  0  0  0  0  0  0  0  0  0  0
   -0.9275    4.7341  -35.9063 H   0  0  0  0  0  0  0  0  0  0  0  0
    2.9106    4.3406  -34.4309 H   0  0  0  0  0  0  0  0  0  0  0  0
  1  2  2  0
  2  3  1  0
  2  6  1  0
  3  4  1  0
  3  7  1  0
  3  8  1  0
  4  5  1  0
  4  9  1  0
  4 10  1  0
  5  6  1  0
  6 11  1  0
M  END
> <intraLJ>
-0.418    

> <intraEL>
-2.154    

> <intraDihe>
5.561     

> <interLJ>
0.000     

> <interEJ>
0.000     

> <gridLJ>
-2.421    

> <gridEL>
0.000     

> <totalE>
0.569     

> <LGFE>
-2.421  

> <LE>
-0.403  

> <SMILES>
O=C1CCON1

> <atom.dprop.GFE>
-0.56 -0.16 -0.18 -0.18 -0.61 -0.74 0 0 0 0 0

> <atom.prop.CLASS>
GENA GEHC PRPC PRPC GENA GEND NCLA NCLA NCLA NCLA NCLA

$$$$
