40_2
     RDKit          3D

 10 10  0  0  0  0  0  0  0  0999 V2000
    0.8957    3.3097  -39.2235 O   0  0  0  0  0  0  0  0  0  0  0  0
    1.3238    2.3614  -38.4840 C   0  0  0  0  0  0  0  0  0  0  0  0
    0.4375    1.5334  -37.7796 C   0  0  0  0  0  0  0  0  0  0  0  0
    0.9422    0.5241  -36.9950 C   0  0  0  0  0  0  0  0  0  0  0  0
    2.2692    0.2965  -36.8714 N   0  0  0  0  0  0  0  0  0  0  0  0
    3.1291    1.0812  -37.5396 N   0  0  0  0  0  0  0  0  0  0  0  0
    2.6912    2.0745  -38.3149 C   0  0  0  0  0  0  0  0  0  0  0  0
   -0.6015    1.7037  -37.8691 H   0  0  0  0  0  0  0  0  0  0  0  0
    0.2860   -0.1081  -36.4584 H   0  0  0  0  0  0  0  0  0  0  0  0
    3.3986    2.6709  -38.8247 H   0  0  0  0  0  0  0  0  0  0  0  0
  1  2  1  0
  2  3  2  0
  2  7  1  0
  3  4  1  0
  3  8  1  0
  4  5  2  0
  4  9  1  0
  5  6  1  0
  6  7  2  0
  7 10  1  0
M  CHG  1   1  -1
M  END
> <intraLJ>
15.492    

> <intraEL>
-6.927    

> <intraDihe>
0.000     

> <interLJ>
0.000     

> <interEJ>
0.000     

> <gridLJ>
-2.694    

> <gridEL>
0.000     

> <totalE>
5.871     

> <LGFE>
-2.694  

> <LE>
-0.385  

> <SMILES>
[O-]c1ccnnc1

> <atom.dprop.GFE>
0 -0.69 -0.076 -0.16 -0.73 -0.82 -0.22 0 0 0

> <atom.prop.CLASS>
NCLA ACEC BENC BENC GENA GENA BENC NCLA NCLA NCLA

$$$$
