35_1
     RDKit          3D

 10 10  0  0  0  0  0  0  0  0999 V2000
   22.3963   -4.2698  -27.6918 N   0  0  0  0  0  0  0  0  0  0  0  0
   21.1958   -4.8472  -27.9515 C   0  0  0  0  0  0  0  0  0  0  0  0
   21.1023   -6.0417  -28.5463 N   0  0  0  0  0  0  0  0  0  0  0  0
   19.8300   -6.2216  -28.5986 C   0  0  0  0  0  0  0  0  0  0  0  0
   19.2115   -5.1732  -28.0461 N   0  0  0  0  0  0  0  0  0  0  0  0
   20.1029   -4.2695  -27.6092 N   0  0  0  0  0  0  0  0  0  0  0  0
   22.2753   -3.6525  -26.8845 H   0  0  0  0  0  0  0  0  0  0  0  0
   23.0852   -5.0149  -27.5536 H   0  0  0  0  0  0  0  0  0  0  0  0
   19.2884   -7.0407  -28.9975 H   0  0  0  0  0  0  0  0  0  0  0  0
   18.1855   -5.0673  -27.9624 H   0  0  0  0  0  0  0  0  0  0  0  0
  1  2  1  0
  1  7  1  0
  1  8  1  0
  2  3  1  0
  2  6  2  0
  3  4  2  0
  4  5  1  0
  4  9  1  0
  5  6  1  0
  5 10  1  0
M  END
> <intraLJ>
0.124     

> <intraEL>
-9.860    

> <intraDihe>
2.848     

> <interLJ>
0.000     

> <interEJ>
0.000     

> <gridLJ>
-2.282    

> <gridEL>
0.000     

> <totalE>
-9.170    

> <LGFE>
-2.282  

> <LE>
-0.380  

> <SMILES>
Nc1nc[nH]n1

> <atom.dprop.GFE>
-0.57 -0.26 -0.24 -0.074 -0.21 -0.93 0 0 0 0

> <atom.prop.CLASS>
GEND GEHC GENA GEHC GEND GENA NCLA NCLA NCLA NCLA

$$$$
