32
     RDKit          3D

 17 16  0  0  0  0  0  0  0  0999 V2000
  -17.9760    2.0205   22.6287 C   0  0  0  0  0  0  0  0  0  0  0  0
  -19.0752    1.0283   23.0007 C   0  0  0  0  0  0  0  0  0  0  0  0
  -18.7779   -0.3544   22.4233 C   0  0  0  0  0  0  0  0  0  0  0  0
  -20.2841    1.5038   22.3571 N   0  0  0  0  0  0  0  0  0  0  0  0
  -21.3324    2.0672   22.9861 C   0  0  0  0  0  0  0  0  0  0  0  0
  -21.2449    2.4587   24.1315 O   0  0  0  0  0  0  0  0  0  0  0  0
  -22.4793    2.1676   22.3122 N   0  0  0  0  0  0  0  0  0  0  0  0
  -17.0309    1.7023   23.0678 H   0  0  0  0  0  0  0  0  0  0  0  0
  -18.2308    3.0080   23.0155 H   0  0  0  0  0  0  0  0  0  0  0  0
  -17.8650    2.0782   21.5458 H   0  0  0  0  0  0  0  0  0  0  0  0
  -19.1498    0.9666   24.0875 H   0  0  0  0  0  0  0  0  0  0  0  0
  -18.6855   -0.3019   21.3385 H   0  0  0  0  0  0  0  0  0  0  0  0
  -19.5880   -1.0379   22.6783 H   0  0  0  0  0  0  0  0  0  0  0  0
  -17.8488   -0.7365   22.8446 H   0  0  0  0  0  0  0  0  0  0  0  0
  -20.5581    1.0232   21.4931 H   0  0  0  0  0  0  0  0  0  0  0  0
  -23.2961    2.4088   22.8842 H   0  0  0  0  0  0  0  0  0  0  0  0
  -22.5966    1.5613   21.4994 H   0  0  0  0  0  0  0  0  0  0  0  0
  1  2  1  0
  1  8  1  0
  1  9  1  0
  1 10  1  0
  2  3  1  0
  2  4  1  0
  2 11  1  0
  3 12  1  0
  3 13  1  0
  3 14  1  0
  4  5  1  0
  4 15  1  0
  5  6  2  0
  5  7  1  0
  7 16  1  0
  7 17  1  0
M  END
> <intraLJ>
-0.724    

> <intraEL>
-9.448    

> <intraDihe>
5.509     

> <interLJ>
0.000     

> <interEJ>
0.000     

> <gridLJ>
-5.064    

> <gridEL>
0.000     

> <totalE>
-9.727    

> <LGFE>
-5.064  

> <LE>
-0.723  

> <SMILES>
CC(C)NC(N)=O

> <atom.dprop.GFE>
-0.4 -0.5 -0.48 -0.91 0 -1.7 -1.1 0 0 0 0 0 0 0 0 0 0

> <atom.prop.CLASS>
PRPC PRPC PRPC GEND NCLA GENA GEND NCLA NCLA NCLA NCLA NCLA NCLA NCLA NCLA NCLA NCLA

$$$$
