40_1
     RDKit          3D

 11 11  0  0  0  0  0  0  0  0999 V2000
  -22.9551   -1.1441   32.2327 O   0  0  0  0  0  0  0  0  0  0  0  0
  -22.2991   -0.6319   31.1497 C   0  0  0  0  0  0  0  0  0  0  0  0
  -22.7583    0.5537   30.5946 C   0  0  0  0  0  0  0  0  0  0  0  0
  -22.0776    1.0501   29.4995 C   0  0  0  0  0  0  0  0  0  0  0  0
  -21.0099    0.4082   28.9919 N   0  0  0  0  0  0  0  0  0  0  0  0
  -20.5737   -0.7298   29.5303 N   0  0  0  0  0  0  0  0  0  0  0  0
  -21.1926   -1.2601   30.5937 C   0  0  0  0  0  0  0  0  0  0  0  0
  -22.5625   -1.9784   32.5553 H   0  0  0  0  0  0  0  0  0  0  0  0
  -23.5993    1.0532   30.9994 H   0  0  0  0  0  0  0  0  0  0  0  0
  -22.3817    1.9518   29.0319 H   0  0  0  0  0  0  0  0  0  0  0  0
  -20.8154   -2.1655   30.9911 H   0  0  0  0  0  0  0  0  0  0  0  0
  1  2  1  0
  1  8  1  0
  2  3  2  0
  2  7  1  0
  3  4  1  0
  3  9  1  0
  4  5  2  0
  4 10  1  0
  5  6  1  0
  6  7  2  0
  7 11  1  0
M  END
> <intraLJ>
16.086    

> <intraEL>
2.571     

> <intraDihe>
0.000     

> <interLJ>
0.000     

> <interEJ>
0.000     

> <gridLJ>
-2.305    

> <gridEL>
0.000     

> <totalE>
16.352    

> <LGFE>
-2.305  

> <LE>
-0.329  

> <SMILES>
Oc1ccnnc1

> <atom.dprop.GFE>
-0.37 -0.099 -0.085 -0.16 -0.7 -0.76 -0.13 0 0 0 0

> <atom.prop.CLASS>
MEOO BENC BENC BENC GENA GENA BENC NCLA NCLA NCLA NCLA

$$$$
