40_1
     RDKit          3D

 11 11  0  0  0  0  0  0  0  0999 V2000
   -0.8040   -0.9156  -36.7609 O   0  0  0  0  0  0  0  0  0  0  0  0
    0.5055   -0.5279  -36.7396 C   0  0  0  0  0  0  0  0  0  0  0  0
    1.4014   -1.2565  -35.9705 C   0  0  0  0  0  0  0  0  0  0  0  0
    2.7197   -0.8432  -35.9654 C   0  0  0  0  0  0  0  0  0  0  0  0
    3.1190    0.2244  -36.6799 N   0  0  0  0  0  0  0  0  0  0  0  0
    2.2536    0.9194  -37.4169 N   0  0  0  0  0  0  0  0  0  0  0  0
    0.9618    0.5666  -37.4619 C   0  0  0  0  0  0  0  0  0  0  0  0
   -1.3597   -0.3461  -37.3276 H   0  0  0  0  0  0  0  0  0  0  0  0
    1.0798   -2.0955  -35.4108 H   0  0  0  0  0  0  0  0  0  0  0  0
    3.4504   -1.3597  -35.3965 H   0  0  0  0  0  0  0  0  0  0  0  0
    0.3065    1.1450  -38.0586 H   0  0  0  0  0  0  0  0  0  0  0  0
  1  2  1  0
  1  8  1  0
  2  3  2  0
  2  7  1  0
  3  4  1  0
  3  9  1  0
  4  5  2  0
  4 10  1  0
  5  6  1  0
  6  7  2  0
  7 11  1  0
M  END
> <intraLJ>
16.086    

> <intraEL>
2.571     

> <intraDihe>
0.000     

> <interLJ>
0.000     

> <interEJ>
0.000     

> <gridLJ>
-2.290    

> <gridEL>
0.000     

> <totalE>
16.367    

> <LGFE>
-2.290  

> <LE>
-0.327  

> <SMILES>
Oc1ccnnc1

> <atom.dprop.GFE>
-0.27 -0.083 -0.069 -0.16 -0.82 -0.73 -0.16 0 0 0 0

> <atom.prop.CLASS>
MEOO BENC BENC BENC GENA GENA BENC NCLA NCLA NCLA NCLA

$$$$
