78_1
     RDKit          3D

 13 12  0  0  0  0  0  0  0  0999 V2000
  -28.2290   -9.8682   24.3770 C   0  0  0  0  0  0  0  0  0  0  0  0
  -29.4288  -10.8326   24.4856 C   0  0  0  0  0  0  0  0  0  0  0  0
  -30.4928  -10.1487   25.3143 C   0  0  0  0  0  0  0  0  0  0  0  0
  -31.0729  -10.6764   26.2829 N   0  0  0  0  0  0  0  0  0  0  0  0
  -30.8418   -8.8805   25.0059 N   0  0  0  0  0  0  0  0  0  0  0  0
  -27.4419  -10.3651   23.8104 H   0  0  0  0  0  0  0  0  0  0  0  0
  -27.8774   -9.6403   25.3861 H   0  0  0  0  0  0  0  0  0  0  0  0
  -28.5412   -8.9559   23.8680 H   0  0  0  0  0  0  0  0  0  0  0  0
  -29.1147  -11.7274   25.0053 H   0  0  0  0  0  0  0  0  0  0  0  0
  -29.8231  -11.0383   23.5017 H   0  0  0  0  0  0  0  0  0  0  0  0
  -31.7489  -10.0678   26.6881 H   0  0  0  0  0  0  0  0  0  0  0  0
  -31.3183   -8.3383   25.7337 H   0  0  0  0  0  0  0  0  0  0  0  0
  -30.2230   -8.3782   24.3606 H   0  0  0  0  0  0  0  0  0  0  0  0
  1  2  1  0
  1  6  1  0
  1  7  1  0
  1  8  1  0
  2  3  1  0
  2  9  1  0
  2 10  1  0
  3  4  2  0
  3  5  1  0
  4 11  1  0
  5 12  1  0
  5 13  1  0
M  END
> <intraLJ>
1.907     

> <intraEL>
-9.553    

> <intraDihe>
7.134     

> <interLJ>
0.000     

> <interEJ>
0.000     

> <gridLJ>
-2.614    

> <gridEL>
0.000     

> <totalE>
-3.126    

> <LGFE>
-2.614  

> <LE>
-0.523  

> <SMILES>
CCC(=N)N

> <atom.dprop.GFE>
-0.48 -0.52 0 -0.84 -0.77 0 0 0 0 0 0 0 0

> <atom.prop.CLASS>
PRPC PRPC NCLA GENA GEND NCLA NCLA NCLA NCLA NCLA NCLA NCLA NCLA

$$$$
