65
     RDKit          3D

 12 12  0  0  0  0  0  0  0  0999 V2000
  -38.8298    8.0785   20.2828 N   0  0  0  0  0  0  0  0  0  0  0  0
  -39.6973    7.1091   20.5733 C   0  0  0  0  0  0  0  0  0  0  0  0
  -40.0360    6.9731   21.8479 N   0  0  0  0  0  0  0  0  0  0  0  0
  -40.8976    6.0148   22.1434 C   0  0  0  0  0  0  0  0  0  0  0  0
  -41.4145    5.2064   21.1419 C   0  0  0  0  0  0  0  0  0  0  0  0
  -41.0094    5.4265   19.8326 C   0  0  0  0  0  0  0  0  0  0  0  0
  -40.1472    6.3886   19.5549 N   0  0  0  0  0  0  0  0  0  0  0  0
  -38.8698    8.3660   19.3018 H   0  0  0  0  0  0  0  0  0  0  0  0
  -38.7903    8.8043   21.0035 H   0  0  0  0  0  0  0  0  0  0  0  0
  -41.1836    5.8796   23.1563 H   0  0  0  0  0  0  0  0  0  0  0  0
  -42.1039    4.4372   21.3703 H   0  0  0  0  0  0  0  0  0  0  0  0
  -41.3828    4.8304   19.0384 H   0  0  0  0  0  0  0  0  0  0  0  0
  1  2  1  0
  1  8  1  0
  1  9  1  0
  2  3  2  0
  2  7  1  0
  3  4  1  0
  4  5  2  0
  4 10  1  0
  5  6  1  0
  5 11  1  0
  6  7  2  0
  6 12  1  0
M  END
> <intraLJ>
20.123    

> <intraEL>
-18.333   

> <intraDihe>
1.049     

> <interLJ>
0.000     

> <interEJ>
0.000     

> <gridLJ>
-3.313    

> <gridEL>
0.000     

> <totalE>
-0.475    

> <LGFE>
-3.313  

> <LE>
-0.473  

> <SMILES>
Nc1ncccn1

> <atom.dprop.GFE>
-0.84 -0.26 -0.7 -0.19 -0.2 -0.28 -0.83 0 0 0 0 0

> <atom.prop.CLASS>
GEND GEHC GENA BENC BENC BENC GENA NCLA NCLA NCLA NCLA NCLA

$$$$
