53
     RDKit          3D

 16 16  0  0  0  0  0  0  0  0999 V2000
    3.8551   -1.5816  -10.7622 O   0  0  0  0  0  0  0  0  0  0  0  0
    3.7588   -2.0763   -9.6509 C   0  0  0  0  0  0  0  0  0  0  0  0
    4.4765   -3.3693   -9.2709 C   0  0  0  0  0  0  0  0  0  0  0  0
    3.5527   -4.3294   -8.4851 C   0  0  0  0  0  0  0  0  0  0  0  0
    2.5780   -3.5937   -7.5284 C   0  0  0  0  0  0  0  0  0  0  0  0
    2.8974   -2.0983   -7.3848 C   0  0  0  0  0  0  0  0  0  0  0  0
    2.9777   -1.5368   -8.7235 N   0  0  0  0  0  0  0  0  0  0  0  0
    5.3299   -3.1028   -8.6483 H   0  0  0  0  0  0  0  0  0  0  0  0
    4.8404   -3.8585  -10.1750 H   0  0  0  0  0  0  0  0  0  0  0  0
    4.1699   -5.0283   -7.9175 H   0  0  0  0  0  0  0  0  0  0  0  0
    2.9613   -4.9068   -9.1991 H   0  0  0  0  0  0  0  0  0  0  0  0
    2.6010   -4.0649   -6.5448 H   0  0  0  0  0  0  0  0  0  0  0  0
    1.5652   -3.6867   -7.9238 H   0  0  0  0  0  0  0  0  0  0  0  0
    3.8482   -1.9689   -6.8636 H   0  0  0  0  0  0  0  0  0  0  0  0
    2.1074   -1.6065   -6.8132 H   0  0  0  0  0  0  0  0  0  0  0  0
    2.4747   -0.7016   -8.9741 H   0  0  0  0  0  0  0  0  0  0  0  0
  1  2  2  0
  2  3  1  0
  2  7  1  0
  3  4  1  0
  3  8  1  0
  3  9  1  0
  4  5  1  0
  4 10  1  0
  4 11  1  0
  5  6  1  0
  5 12  1  0
  5 13  1  0
  6  7  1  0
  6 14  1  0
  6 15  1  0
  7 16  1  0
M  END
> <intraLJ>
0.344     

> <intraEL>
-2.405    

> <intraDihe>
10.947    

> <interLJ>
0.000     

> <interEJ>
0.000     

> <gridLJ>
-2.633    

> <gridEL>
0.000     

> <totalE>
6.252     

> <LGFE>
-2.633  

> <LE>
-0.376  

> <SMILES>
O=C1CCCCN1

> <atom.dprop.GFE>
-1.2 0 -0.2 -0.14 -0.32 -0.25 -0.55 0 0 0 0 0 0 0 0 0

> <atom.prop.CLASS>
GENA NCLA PRPC PRPC PRPC PRPC GEND NCLA NCLA NCLA NCLA NCLA NCLA NCLA NCLA NCLA

$$$$
