13
     RDKit          3D

 13 12  0  0  0  0  0  0  0  0999 V2000
   17.4561   15.8039   -4.2107 C   0  0  0  0  0  0  0  0  0  0  0  0
   18.2085   15.2028   -5.4172 C   0  0  0  0  0  0  0  0  0  0  0  0
   19.6868   15.2179   -5.0884 C   0  0  0  0  0  0  0  0  0  0  0  0
   20.4567   16.0570   -5.5286 O   0  0  0  0  0  0  0  0  0  0  0  0
   20.1683   14.2659   -4.2488 N   0  0  0  0  0  0  0  0  0  0  0  0
   21.5356   14.2514   -3.9064 O   0  0  0  0  0  0  0  0  0  0  0  0
   16.3912   15.8213   -4.4449 H   0  0  0  0  0  0  0  0  0  0  0  0
   17.8193   16.8205   -4.0451 H   0  0  0  0  0  0  0  0  0  0  0  0
   17.6379   15.1885   -3.3272 H   0  0  0  0  0  0  0  0  0  0  0  0
   18.0485   15.8331   -6.2814 H   0  0  0  0  0  0  0  0  0  0  0  0
   17.8839   14.1832   -5.5725 H   0  0  0  0  0  0  0  0  0  0  0  0
   19.5606   13.5406   -3.8346 H   0  0  0  0  0  0  0  0  0  0  0  0
   21.9211   15.0224   -4.3904 H   0  0  0  0  0  0  0  0  0  0  0  0
  1  2  1  0
  1  7  1  0
  1  8  1  0
  1  9  1  0
  2  3  1  0
  2 10  1  0
  2 11  1  0
  3  4  2  0
  3  5  1  0
  5  6  1  0
  5 12  1  0
  6 13  1  0
M  END
> <intraLJ>
0.053     

> <intraEL>
2.368     

> <intraDihe>
5.919     

> <interLJ>
0.000     

> <interEJ>
0.000     

> <gridLJ>
-3.275    

> <gridEL>
0.000     

> <totalE>
5.065     

> <LGFE>
-3.275  

> <LE>
-0.546  

> <SMILES>
CCC(=O)NO

> <atom.dprop.GFE>
-0.49 -0.59 0 -1.1 -0.47 -0.62 0 0 0 0 0 0 0

> <atom.prop.CLASS>
PRPC PRPC NCLA GENA GEND MEOO NCLA NCLA NCLA NCLA NCLA NCLA NCLA

$$$$
