40_1
     RDKit          3D

 11 11  0  0  0  0  0  0  0  0999 V2000
  -25.5157    7.7983   22.3185 O   0  0  0  0  0  0  0  0  0  0  0  0
  -26.0044    6.7003   21.6697 C   0  0  0  0  0  0  0  0  0  0  0  0
  -26.9350    6.8864   20.6576 C   0  0  0  0  0  0  0  0  0  0  0  0
  -27.4142    5.7596   20.0177 C   0  0  0  0  0  0  0  0  0  0  0  0
  -26.9935    4.5293   20.3626 N   0  0  0  0  0  0  0  0  0  0  0  0
  -26.0991    4.3576   21.3351 N   0  0  0  0  0  0  0  0  0  0  0  0
  -25.5979    5.4124   21.9920 C   0  0  0  0  0  0  0  0  0  0  0  0
  -24.8675    7.5719   23.0135 H   0  0  0  0  0  0  0  0  0  0  0  0
  -27.2615    7.8577   20.3917 H   0  0  0  0  0  0  0  0  0  0  0  0
  -28.1271    5.8383   19.2368 H   0  0  0  0  0  0  0  0  0  0  0  0
  -24.8903    5.2334   22.7582 H   0  0  0  0  0  0  0  0  0  0  0  0
  1  2  1  0
  1  8  1  0
  2  3  2  0
  2  7  1  0
  3  4  1  0
  3  9  1  0
  4  5  2  0
  4 10  1  0
  5  6  1  0
  6  7  2  0
  7 11  1  0
M  END
> <intraLJ>
16.086    

> <intraEL>
2.571     

> <intraDihe>
0.000     

> <interLJ>
0.000     

> <interEJ>
0.000     

> <gridLJ>
-4.363    

> <gridEL>
0.000     

> <totalE>
14.295    

> <LGFE>
-4.363  

> <LE>
-0.623  

> <SMILES>
Oc1ccnnc1

> <atom.dprop.GFE>
-1.5 -0.011 -0.004 -0.028 -1.3 -1.3 -0.12 0 0 0 0

> <atom.prop.CLASS>
MEOO BENC BENC BENC GENA GENA BENC NCLA NCLA NCLA NCLA

$$$$
