18
     RDKit          3D

 13 13  0  0  0  0  0  0  0  0999 V2000
   18.8385   -4.5779   -9.4881 O   0  0  0  0  0  0  0  0  0  0  0  0
   20.1890   -4.2495   -9.8613 C   0  0  0  0  0  0  0  0  0  0  0  0
   20.2129   -2.8696  -10.7046 C   0  0  0  0  0  0  0  0  0  0  0  0
   20.5720   -3.7836  -12.1433 S   0  0  0  0  0  0  0  0  0  0  0  0
   21.8594   -3.4477  -12.6488 O   0  0  0  0  0  0  0  0  0  0  0  0
   19.4564   -3.8403  -13.0249 O   0  0  0  0  0  0  0  0  0  0  0  0
   20.6533   -5.1776  -11.1038 C   0  0  0  0  0  0  0  0  0  0  0  0
   18.5585   -4.0772   -8.7024 H   0  0  0  0  0  0  0  0  0  0  0  0
   20.8537   -4.2740   -9.0081 H   0  0  0  0  0  0  0  0  0  0  0  0
   20.9858   -2.2381  -10.2876 H   0  0  0  0  0  0  0  0  0  0  0  0
   19.2450   -2.3977  -10.5988 H   0  0  0  0  0  0  0  0  0  0  0  0
   19.9264   -5.9715  -11.2158 H   0  0  0  0  0  0  0  0  0  0  0  0
   21.6253   -5.5887  -10.8674 H   0  0  0  0  0  0  0  0  0  0  0  0
  1  2  1  0
  1  8  1  0
  2  3  1  0
  2  7  1  0
  2  9  1  0
  3  4  1  0
  3 10  1  0
  3 11  1  0
  4  5  2  0
  4  6  2  0
  4  7  1  0
  7 12  1  0
  7 13  1  0
M  END
> <intraLJ>
0.307     

> <intraEL>
-1.458    

> <intraDihe>
23.153    

> <interLJ>
0.000     

> <interEJ>
0.000     

> <gridLJ>
-2.410    

> <gridEL>
0.000     

> <totalE>
19.592    

> <LGFE>
-2.410  

> <LE>
-0.344  

> <SMILES>
O=S1(=O)CC(O)C1

> <atom.dprop.GFE>
-0.42 -0.27 -0.35 0 -0.5 -0.69 -0.19 0 0 0 0 0 0

> <atom.prop.CLASS>
MEOO PRPC PRPC NCLA GENA GENA PRPC NCLA NCLA NCLA NCLA NCLA NCLA

$$$$
