27_1
     RDKit          3D

 11 11  0  0  0  0  0  0  0  0999 V2000
  -27.3402   14.3841   23.5051 N   0  0  0  0  0  0  0  0  0  0  0  0
  -28.1446   15.0282   24.4132 C   0  0  0  0  0  0  0  0  0  0  0  0
  -28.2341   14.7147   25.6667 N   0  0  0  0  0  0  0  0  0  0  0  0
  -29.1374   15.6113   26.1698 C   0  0  0  0  0  0  0  0  0  0  0  0
  -29.5782   16.4529   25.2054 C   0  0  0  0  0  0  0  0  0  0  0  0
  -28.9387   16.0710   24.0769 N   0  0  0  0  0  0  0  0  0  0  0  0
  -26.9241   14.9872   22.7867 H   0  0  0  0  0  0  0  0  0  0  0  0
  -26.6614   13.7819   23.9921 H   0  0  0  0  0  0  0  0  0  0  0  0
  -29.4444   15.6326   27.1855 H   0  0  0  0  0  0  0  0  0  0  0  0
  -30.2723   17.2521   25.2450 H   0  0  0  0  0  0  0  0  0  0  0  0
  -29.0315   16.4599   23.1285 H   0  0  0  0  0  0  0  0  0  0  0  0
  1  2  1  0
  1  7  1  0
  1  8  1  0
  2  3  2  0
  2  6  1  0
  3  4  1  0
  4  5  2  0
  4  9  1  0
  5  6  1  0
  5 10  1  0
  6 11  1  0
M  END
> <intraLJ>
-0.193    

> <intraEL>
-10.326   

> <intraDihe>
2.842     

> <interLJ>
0.000     

> <interEJ>
0.000     

> <gridLJ>
-2.291    

> <gridEL>
0.000     

> <totalE>
-9.967    

> <LGFE>
-2.291  

> <LE>
-0.382  

> <SMILES>
Nc1ncc[nH]1

> <atom.dprop.GFE>
-0.35 -0.14 -1 -0.11 -0.1 -0.59 0 0 0 0 0

> <atom.prop.CLASS>
GEND GEHC GENA GEHC GEHC GEND NCLA NCLA NCLA NCLA NCLA

$$$$
