48_1
     RDKit          3D

 17 16  0  0  1  0  0  0  0  0999 V2000
   23.8257    0.3547  -27.9066 C   0  0  0  0  0  0  0  0  0  0  0  0
   23.1168    0.6974  -29.2267 C   0  0  0  0  0  0  0  0  0  0  0  0
   23.3645    2.1404  -29.7013 C   0  0  0  0  0  0  0  0  0  0  0  0
   22.9027    3.0895  -28.6483 N   0  0  0  0  0  0  0  0  0  0  0  0
   22.7230    2.4215  -31.0943 C   0  0  0  0  0  0  0  0  0  0  0  0
   22.0874    3.4365  -31.3405 O   0  0  0  0  0  0  0  0  0  0  0  0
   22.9177    1.5475  -32.0712 N   0  0  0  0  0  0  0  0  0  0  0  0
   23.6297   -0.6850  -27.6447 H   0  0  0  0  0  0  0  0  0  0  0  0
   23.4569    0.9955  -27.1042 H   0  0  0  0  0  0  0  0  0  0  0  0
   24.9010    0.5003  -28.0124 H   0  0  0  0  0  0  0  0  0  0  0  0
   22.0427    0.5403  -29.1119 H   0  0  0  0  0  0  0  0  0  0  0  0
   23.4728    0.0133  -29.9988 H   0  0  0  0  0  0  0  0  0  0  0  0
   24.4412    2.2479  -29.8450 H   0  0  0  0  0  0  0  0  0  0  0  0
   21.9716    2.8159  -28.3614 H   0  0  0  0  0  0  0  0  0  0  0  0
   22.8543    4.0255  -29.0248 H   0  0  0  0  0  0  0  0  0  0  0  0
   22.5098    1.7742  -32.9631 H   0  0  0  0  0  0  0  0  0  0  0  0
   23.4448    0.7073  -31.9142 H   0  0  0  0  0  0  0  0  0  0  0  0
  1  2  1  0
  1  8  1  0
  1  9  1  0
  1 10  1  0
  2  3  1  0
  2 11  1  0
  2 12  1  0
  3  4  1  0
  3  5  1  0
  3 13  1  0
  4 14  1  0
  4 15  1  0
  5  6  2  0
  5  7  1  0
  7 16  1  0
  7 17  1  0
M  END
> <intraLJ>
0.943     

> <intraEL>
5.313     

> <intraDihe>
0.746     

> <interLJ>
0.000     

> <interEJ>
0.000     

> <gridLJ>
-3.562    

> <gridEL>
0.000     

> <totalE>
3.440     

> <LGFE>
-3.562  

> <LE>
-0.509  

> <SMILES>
CCC(N)C(N)=O

> <atom.dprop.GFE>
-0.22 -0.25 -0.23 -0.51 0 -1.5 -0.87 0 0 0 0 0 0 0 0 0 0

> <atom.prop.CLASS>
PRPC PRPC PRPC GEND NCLA GENA GEND NCLA NCLA NCLA NCLA NCLA NCLA NCLA NCLA NCLA NCLA

$$$$
