52_1
     RDKit          3D

 10 10  0  0  0  0  0  0  0  0999 V2000
  -13.0791   -4.3830   13.2518 C   0  0  0  0  0  0  0  0  0  0  0  0
  -12.4415   -3.0135   13.2890 C   0  0  0  0  0  0  0  0  0  0  0  0
  -11.5703   -2.5621   14.1109 N   0  0  0  0  0  0  0  0  0  0  0  0
  -11.3180   -1.2817   13.7249 N   0  0  0  0  0  0  0  0  0  0  0  0
  -12.0331   -0.9721   12.6808 N   0  0  0  0  0  0  0  0  0  0  0  0
  -12.7256   -2.0585   12.4218 N   0  0  0  0  0  0  0  0  0  0  0  0
  -12.6544   -4.9753   14.0634 H   0  0  0  0  0  0  0  0  0  0  0  0
  -12.8577   -4.8439   12.2891 H   0  0  0  0  0  0  0  0  0  0  0  0
  -14.1544   -4.2689   13.3889 H   0  0  0  0  0  0  0  0  0  0  0  0
  -13.3968   -2.1329   11.6395 H   0  0  0  0  0  0  0  0  0  0  0  0
  1  2  1  0
  1  7  1  0
  1  8  1  0
  1  9  1  0
  2  3  2  0
  2  6  1  0
  3  4  1  0
  4  5  2  0
  5  6  1  0
  6 10  1  0
M  END
> <intraLJ>
-0.215    

> <intraEL>
-1.684    

> <intraDihe>
1.140     

> <interLJ>
0.000     

> <interEJ>
0.000     

> <gridLJ>
-2.358    

> <gridEL>
0.000     

> <totalE>
-3.117    

> <LGFE>
-2.358  

> <LE>
-0.393  

> <SMILES>
Cc1nnn[nH]1

> <atom.dprop.GFE>
-0.25 0.11 -0.48 -0.85 -0.66 -0.24 0 0 0 0

> <atom.prop.CLASS>
PRPC GEHC GENA GENA GENA GEND NCLA NCLA NCLA NCLA

$$$$
