64_2
     RDKit          3D

 15 15  0  0  0  0  0  0  0  0999 V2000
  -13.7050    4.1743   22.6532 N   0  0  0  0  0  0  0  0  0  0  0  0
  -13.0996    3.0535   21.9594 C   0  0  0  0  0  0  0  0  0  0  0  0
  -14.1190    1.9749   22.2052 C   0  0  0  0  0  0  0  0  0  0  0  0
  -14.1224    1.1276   23.3334 C   0  0  0  0  0  0  0  0  0  0  0  0
  -15.1686    0.2514   23.3349 C   0  0  0  0  0  0  0  0  0  0  0  0
  -16.1762    0.4455   21.9479 S   0  0  0  0  0  0  0  0  0  0  0  0
  -15.1684    1.7208   21.3651 C   0  0  0  0  0  0  0  0  0  0  0  0
  -13.1160    4.9892   22.5756 H   0  0  0  0  0  0  0  0  0  0  0  0
  -13.8380    3.8874   23.6128 H   0  0  0  0  0  0  0  0  0  0  0  0
  -14.6147    4.3189   22.2395 H   0  0  0  0  0  0  0  0  0  0  0  0
  -12.1565    2.7682   22.4138 H   0  0  0  0  0  0  0  0  0  0  0  0
  -13.0246    3.2442   20.8941 H   0  0  0  0  0  0  0  0  0  0  0  0
  -13.3941    1.1445   24.1056 H   0  0  0  0  0  0  0  0  0  0  0  0
  -15.3919   -0.4879   24.0624 H   0  0  0  0  0  0  0  0  0  0  0  0
  -15.4056    2.1993   20.4476 H   0  0  0  0  0  0  0  0  0  0  0  0
  1  2  1  0
  1  8  1  0
  1  9  1  0
  1 10  1  0
  2  3  1  0
  2 11  1  0
  2 12  1  0
  3  4  1  0
  3  7  2  0
  4  5  2  0
  4 13  1  0
  5  6  1  0
  5 14  1  0
  6  7  1  0
  7 15  1  0
M  CHG  1   1   1
M  END
> <intraLJ>
1.074     

> <intraEL>
2.882     

> <intraDihe>
9.750     

> <interLJ>
0.000     

> <interEJ>
0.000     

> <gridLJ>
-2.170    

> <gridEL>
0.000     

> <totalE>
11.535    

> <LGFE>
-2.170  

> <LE>
-0.310  

> <SMILES>
[NH3+]Cc1ccsc1

> <atom.dprop.GFE>
-1.3 0.15 -0.076 -0.086 -0.12 -0.58 -0.15 0 0 0 0 0 0 0 0

> <atom.prop.CLASS>
MAMN PRPC GEHC GEHC GEHC PRPC GEHC NCLA NCLA NCLA NCLA NCLA NCLA NCLA NCLA

$$$$
