81_2
     RDKit          3D

 19 19  0  0  1  0  0  0  0  0999 V2000
  -42.9086   15.1742   24.2465 N   0  0  0  0  0  0  0  0  0  0  0  0
  -43.6263   14.6218   25.4226 C   0  0  0  0  0  0  0  0  0  0  0  0
  -43.3317   13.1188   25.5512 C   0  0  0  0  0  0  0  0  0  0  0  0
  -43.8397   12.2696   24.3904 C   0  0  0  0  0  0  0  0  0  0  0  0
  -44.0554   10.9073   25.0516 C   0  0  0  0  0  0  0  0  0  0  0  0
  -44.0621   11.2010   26.5537 C   0  0  0  0  0  0  0  0  0  0  0  0
  -44.0468   12.6165   26.6657 O   0  0  0  0  0  0  0  0  0  0  0  0
  -42.9632   16.1800   24.2000 H   0  0  0  0  0  0  0  0  0  0  0  0
  -43.2455   14.7504   23.3945 H   0  0  0  0  0  0  0  0  0  0  0  0
  -41.9435   14.8652   24.3542 H   0  0  0  0  0  0  0  0  0  0  0  0
  -43.2555   15.1067   26.3290 H   0  0  0  0  0  0  0  0  0  0  0  0
  -44.7047   14.7858   25.3548 H   0  0  0  0  0  0  0  0  0  0  0  0
  -42.2622   12.9508   25.6966 H   0  0  0  0  0  0  0  0  0  0  0  0
  -44.7946   12.6528   24.0237 H   0  0  0  0  0  0  0  0  0  0  0  0
  -43.1104   12.2106   23.5804 H   0  0  0  0  0  0  0  0  0  0  0  0
  -43.2359   10.2262   24.8128 H   0  0  0  0  0  0  0  0  0  0  0  0
  -45.0057   10.4703   24.7384 H   0  0  0  0  0  0  0  0  0  0  0  0
  -43.1654   10.7808   27.0137 H   0  0  0  0  0  0  0  0  0  0  0  0
  -44.9495   10.7809   27.0323 H   0  0  0  0  0  0  0  0  0  0  0  0
  1  2  1  0
  1  8  1  0
  1  9  1  0
  1 10  1  0
  2  3  1  0
  2 11  1  0
  2 12  1  0
  3  4  1  0
  3  7  1  0
  3 13  1  0
  4  5  1  0
  4 14  1  0
  4 15  1  0
  5  6  1  0
  5 16  1  0
  5 17  1  0
  6  7  1  0
  6 18  1  0
  6 19  1  0
M  CHG  1   1   1
M  END
> <intraLJ>
-0.745    

> <intraEL>
2.670     

> <intraDihe>
7.603     

> <interLJ>
0.000     

> <interEJ>
0.000     

> <gridLJ>
-2.022    

> <gridEL>
0.000     

> <totalE>
7.505     

> <LGFE>
-2.022  

> <LE>
-0.289  

> <SMILES>
[NH3+]CC1CCCO1

> <atom.dprop.GFE>
-0.74 -0.13 -0.2 -0.2 -0.25 -0.18 -0.32 0 0 0 0 0 0 0 0 0 0 0 0

> <atom.prop.CLASS>
MAMN PRPC PRPC PRPC PRPC PRPC GENA NCLA NCLA NCLA NCLA NCLA NCLA NCLA NCLA NCLA NCLA NCLA NCLA

$$$$
