12
     RDKit          3D

 10 10  0  0  0  0  0  0  0  0999 V2000
    3.2381    7.4156  -27.9236 N   0  0  0  0  0  0  0  0  0  0  0  0
    2.7309    7.3724  -26.8985 C   0  0  0  0  0  0  0  0  0  0  0  0
    2.0876    7.2912  -25.6050 C   0  0  0  0  0  0  0  0  0  0  0  0
    1.6894    6.1460  -24.9892 C   0  0  0  0  0  0  0  0  0  0  0  0
    1.1466    6.5208  -23.8210 N   0  0  0  0  0  0  0  0  0  0  0  0
    1.2208    7.8682  -23.7441 C   0  0  0  0  0  0  0  0  0  0  0  0
    1.7840    8.3663  -24.8039 N   0  0  0  0  0  0  0  0  0  0  0  0
    1.7553    5.1329  -25.2952 H   0  0  0  0  0  0  0  0  0  0  0  0
    0.7395    5.8998  -23.0989 H   0  0  0  0  0  0  0  0  0  0  0  0
    0.8481    8.3887  -22.8978 H   0  0  0  0  0  0  0  0  0  0  0  0
  1  2  3  0
  2  3  1  0
  3  4  2  0
  3  7  1  0
  4  5  1  0
  4  8  1  0
  5  6  1  0
  5  9  1  0
  6  7  2  0
  6 10  1  0
M  END
> <intraLJ>
-0.793    

> <intraEL>
2.828     

> <intraDihe>
0.000     

> <interLJ>
0.000     

> <interEJ>
0.000     

> <gridLJ>
-2.887    

> <gridEL>
0.000     

> <totalE>
-0.851    

> <LGFE>
-2.887  

> <LE>
-0.412  

> <SMILES>
N#Cc1c[nH]cn1

> <atom.dprop.GFE>
-1.3 0 -0.17 -0.11 -0.55 -0.12 -0.61 0 0 0

> <atom.prop.CLASS>
GENA NCLA GEHC GEHC GEND GEHC GENA NCLA NCLA NCLA

$$$$
