36_2
     RDKit          3D

 14 14  0  0  0  0  0  0  0  0999 V2000
    2.9120   -3.9167    7.4366 N   0  0  0  0  0  0  0  0  0  0  0  0
    3.9258   -3.3381    6.5555 C   0  0  0  0  0  0  0  0  0  0  0  0
    4.8449   -2.6149    7.5225 C   0  0  0  0  0  0  0  0  0  0  0  0
    4.9476   -1.2877    7.7036 C   0  0  0  0  0  0  0  0  0  0  0  0
    5.8682   -1.0699    8.6240 O   0  0  0  0  0  0  0  0  0  0  0  0
    6.3147   -2.2822    8.9840 C   0  0  0  0  0  0  0  0  0  0  0  0
    5.7317   -3.2459    8.3533 N   0  0  0  0  0  0  0  0  0  0  0  0
    2.5029   -4.7417    7.0275 H   0  0  0  0  0  0  0  0  0  0  0  0
    2.2340   -3.2035    7.6575 H   0  0  0  0  0  0  0  0  0  0  0  0
    3.4276   -4.1149    8.2938 H   0  0  0  0  0  0  0  0  0  0  0  0
    3.4891   -2.6294    5.8620 H   0  0  0  0  0  0  0  0  0  0  0  0
    4.4986   -4.1222    6.0713 H   0  0  0  0  0  0  0  0  0  0  0  0
    4.4371   -0.4755    7.2474 H   0  0  0  0  0  0  0  0  0  0  0  0
    7.0753   -2.3543    9.7232 H   0  0  0  0  0  0  0  0  0  0  0  0
  1  2  1  0
  1  8  1  0
  1  9  1  0
  1 10  1  0
  2  3  1  0
  2 11  1  0
  2 12  1  0
  3  4  2  0
  3  7  1  0
  4  5  1  0
  4 13  1  0
  5  6  1  0
  6  7  2  0
  6 14  1  0
M  CHG  1   1   1
M  END
> <intraLJ>
0.673     

> <intraEL>
4.717     

> <intraDihe>
11.926    

> <interLJ>
0.000     

> <interEJ>
0.000     

> <gridLJ>
-3.214    

> <gridEL>
0.000     

> <totalE>
14.102    

> <LGFE>
-3.214  

> <LE>
-0.459  

> <SMILES>
[NH3+]Cc1cocn1

> <atom.dprop.GFE>
-1.7 -0.16 -0.1 -0.13 -0.65 -0.025 -0.4 0 0 0 0 0 0 0

> <atom.prop.CLASS>
MAMN PRPC GEHC GEHC GENA GEHC GENA NCLA NCLA NCLA NCLA NCLA NCLA NCLA

$$$$
