11_2
     RDKit          3D

 10 10  0  0  0  0  0  0  0  0999 V2000
    3.0034    1.7430  -41.6671 O   0  0  0  0  0  0  0  0  0  0  0  0
    2.8833    2.1490  -40.4638 C   0  0  0  0  0  0  0  0  0  0  0  0
    2.8129    1.1576  -39.3547 C   0  0  0  0  0  0  0  0  0  0  0  0
    3.0785    2.0943  -38.1806 C   0  0  0  0  0  0  0  0  0  0  0  0
    2.6892    3.3867  -38.6920 O   0  0  0  0  0  0  0  0  0  0  0  0
    2.7884    3.3712  -40.0791 N   0  0  0  0  0  0  0  0  0  0  0  0
    3.5945    0.4220  -39.4625 H   0  0  0  0  0  0  0  0  0  0  0  0
    1.8068    0.7703  -39.3191 H   0  0  0  0  0  0  0  0  0  0  0  0
    4.1448    2.1100  -37.9560 H   0  0  0  0  0  0  0  0  0  0  0  0
    2.4896    1.8231  -37.3069 H   0  0  0  0  0  0  0  0  0  0  0  0
  1  2  1  0
  2  3  1  0
  2  6  2  0
  3  4  1  0
  3  7  1  0
  3  8  1  0
  4  5  1  0
  4  9  1  0
  4 10  1  0
  5  6  1  0
M  CHG  1   1  -1
M  END
> <intraLJ>
-0.206    

> <intraEL>
-2.183    

> <intraDihe>
20.149    

> <interLJ>
0.000     

> <interEJ>
0.000     

> <gridLJ>
-2.274    

> <gridEL>
0.000     

> <totalE>
15.486    

> <LGFE>
-2.274  

> <LE>
-0.379  

> <SMILES>
[O-]C1=NOCC1

> <atom.dprop.GFE>
0 -0.1 -0.42 -0.3 -0.71 -0.74 0 0 0 0

> <atom.prop.CLASS>
NCLA ACEC PRPC PRPC GENA GENA NCLA NCLA NCLA NCLA

$$$$
