11_2
     RDKit          3D

 10 10  0  0  0  0  0  0  0  0999 V2000
   14.3551   -6.4848  -25.2538 O   0  0  0  0  0  0  0  0  0  0  0  0
   15.2138   -6.0627  -24.4102 C   0  0  0  0  0  0  0  0  0  0  0  0
   16.6161   -5.8155  -24.8462 C   0  0  0  0  0  0  0  0  0  0  0  0
   17.0922   -4.9852  -23.6587 C   0  0  0  0  0  0  0  0  0  0  0  0
   16.1914   -5.3731  -22.5997 O   0  0  0  0  0  0  0  0  0  0  0  0
   15.0068   -5.8362  -23.1625 N   0  0  0  0  0  0  0  0  0  0  0  0
   16.6264   -5.2445  -25.7614 H   0  0  0  0  0  0  0  0  0  0  0  0
   17.1253   -6.7658  -24.8812 H   0  0  0  0  0  0  0  0  0  0  0  0
   16.9524   -3.9254  -23.8706 H   0  0  0  0  0  0  0  0  0  0  0  0
   18.1247   -5.2084  -23.3984 H   0  0  0  0  0  0  0  0  0  0  0  0
  1  2  1  0
  2  3  1  0
  2  6  2  0
  3  4  1  0
  3  7  1  0
  3  8  1  0
  4  5  1  0
  4  9  1  0
  4 10  1  0
  5  6  1  0
M  CHG  1   1  -1
M  END
> <intraLJ>
-0.206    

> <intraEL>
-2.183    

> <intraDihe>
20.149    

> <interLJ>
0.000     

> <interEJ>
0.000     

> <gridLJ>
-2.508    

> <gridEL>
0.000     

> <totalE>
15.251    

> <LGFE>
-2.508  

> <LE>
-0.418  

> <SMILES>
[O-]C1=NOCC1

> <atom.dprop.GFE>
0 -0.98 -0.43 -0.33 -0.37 -0.4 0 0 0 0

> <atom.prop.CLASS>
NCLA ACEC PRPC PRPC GENA GENA NCLA NCLA NCLA NCLA

$$$$
