75
     RDKit          3D

 11 11  0  0  0  0  0  0  0  0999 V2000
    0.9441   -6.1286    3.1409 O   0  0  0  0  0  0  0  0  0  0  0  0
    0.6259   -6.8070    1.9367 S   0  0  0  0  0  0  0  0  0  0  0  0
    1.0428   -6.2808    0.6882 O   0  0  0  0  0  0  0  0  0  0  0  0
   -1.0409   -7.2625    1.8461 C   0  0  0  0  0  0  0  0  0  0  0  0
   -0.5082   -8.7827    1.7147 C   0  0  0  0  0  0  0  0  0  0  0  0
    0.9643   -8.3678    2.0709 N   0  0  0  0  0  0  0  0  0  0  0  0
   -1.6231   -7.0081    0.9704 H   0  0  0  0  0  0  0  0  0  0  0  0
   -1.6617   -7.1604    2.7271 H   0  0  0  0  0  0  0  0  0  0  0  0
   -0.5934   -9.1596    0.7041 H   0  0  0  0  0  0  0  0  0  0  0  0
   -0.9490   -9.4495    2.4430 H   0  0  0  0  0  0  0  0  0  0  0  0
    1.2196   -8.7114    2.9928 H   0  0  0  0  0  0  0  0  0  0  0  0
  1  2  2  0
  2  3  2  0
  2  4  1  0
  2  6  1  0
  4  5  1  0
  4  7  1  0
  4  8  1  0
  5  6  1  0
  5  9  1  0
  5 10  1  0
  6 11  1  0
M  END
> <intraLJ>
-0.439    

> <intraEL>
-3.883    

> <intraDihe>
14.792    

> <interLJ>
0.000     

> <interEJ>
0.000     

> <gridLJ>
-2.082    

> <gridEL>
0.000     

> <totalE>
8.388     

> <LGFE>
-2.082  

> <LE>
-0.347  

> <SMILES>
O=S1(=O)CCN1

> <atom.dprop.GFE>
-0.63 0 -1.1 -0.12 -0.0097 -0.27 0 0 0 0 0

> <atom.prop.CLASS>
GENA NCLA GENA PRPC PRPC GEND NCLA NCLA NCLA NCLA NCLA

$$$$
