60_1
     RDKit          3D

 13 13  0  0  0  0  0  0  0  0999 V2000
   22.0803    6.4106   -7.7753 N   0  0  0  0  0  0  0  0  0  0  0  0
   23.3499    6.8935   -8.0218 C   0  0  0  0  0  0  0  0  0  0  0  0
   23.5288    8.1293   -8.6317 C   0  0  0  0  0  0  0  0  0  0  0  0
   24.8210    8.5769   -8.8707 C   0  0  0  0  0  0  0  0  0  0  0  0
   25.8952    7.8569   -8.5274 N   0  0  0  0  0  0  0  0  0  0  0  0
   25.7285    6.6701   -7.9329 C   0  0  0  0  0  0  0  0  0  0  0  0
   24.4698    6.1534   -7.6608 C   0  0  0  0  0  0  0  0  0  0  0  0
   22.0042    5.3926   -7.6350 H   0  0  0  0  0  0  0  0  0  0  0  0
   21.3219    6.8277   -8.3337 H   0  0  0  0  0  0  0  0  0  0  0  0
   22.6940    8.7173   -8.9067 H   0  0  0  0  0  0  0  0  0  0  0  0
   24.9833    9.5152   -9.3357 H   0  0  0  0  0  0  0  0  0  0  0  0
   26.5989    6.1240   -7.6684 H   0  0  0  0  0  0  0  0  0  0  0  0
   24.3619    5.2161   -7.1857 H   0  0  0  0  0  0  0  0  0  0  0  0
  1  2  1  0
  1  8  1  0
  1  9  1  0
  2  3  2  0
  2  7  1  0
  3  4  1  0
  3 10  1  0
  4  5  2  0
  4 11  1  0
  5  6  1  0
  6  7  2  0
  6 12  1  0
  7 13  1  0
M  END
> <intraLJ>
12.679    

> <intraEL>
-3.147    

> <intraDihe>
1.319     

> <interLJ>
0.000     

> <interEJ>
0.000     

> <gridLJ>
-3.212    

> <gridEL>
0.000     

> <totalE>
7.638     

> <LGFE>
-3.212  

> <LE>
-0.459  

> <SMILES>
Nc1ccncc1

> <atom.dprop.GFE>
-1.2 -0.19 -0.2 -0.28 -0.97 -0.21 -0.18 0 0 0 0 0 0

> <atom.prop.CLASS>
GEND BENC BENC GEHC GENA GEHC BENC NCLA NCLA NCLA NCLA NCLA NCLA

$$$$
