33
     RDKit          3D

 12 12  0  0  0  0  0  0  0  0999 V2000
  -25.2963   -5.9825    2.4812 N   0  0  0  0  0  0  0  0  0  0  0  0
  -26.0380   -5.3149    3.4162 C   0  0  0  0  0  0  0  0  0  0  0  0
  -27.4246   -5.2972    3.3627 C   0  0  0  0  0  0  0  0  0  0  0  0
  -28.0930   -4.5858    4.3466 C   0  0  0  0  0  0  0  0  0  0  0  0
  -27.3423   -3.9382    5.3184 C   0  0  0  0  0  0  0  0  0  0  0  0
  -26.0011   -3.9943    5.3154 N   0  0  0  0  0  0  0  0  0  0  0  0
  -25.3490   -4.6764    4.3737 N   0  0  0  0  0  0  0  0  0  0  0  0
  -24.3048   -5.7092    2.4990 H   0  0  0  0  0  0  0  0  0  0  0  0
  -25.7210   -6.0577    1.5496 H   0  0  0  0  0  0  0  0  0  0  0  0
  -27.9438   -5.8152    2.6005 H   0  0  0  0  0  0  0  0  0  0  0  0
  -29.1508   -4.5364    4.3615 H   0  0  0  0  0  0  0  0  0  0  0  0
  -27.8120   -3.3832    6.0892 H   0  0  0  0  0  0  0  0  0  0  0  0
  1  2  1  0
  1  8  1  0
  1  9  1  0
  2  3  2  0
  2  7  1  0
  3  4  1  0
  3 10  1  0
  4  5  2  0
  4 11  1  0
  5  6  1  0
  5 12  1  0
  6  7  2  0
M  END
> <intraLJ>
16.642    

> <intraEL>
-7.622    

> <intraDihe>
1.828     

> <interLJ>
0.000     

> <interEJ>
0.000     

> <gridLJ>
-4.258    

> <gridEL>
0.000     

> <totalE>
6.590     

> <LGFE>
-4.258  

> <LE>
-0.608  

> <SMILES>
Nc1cccnn1

> <atom.dprop.GFE>
-0.92 -0.13 -0.19 -0.16 -0.1 -1.4 -1.4 0 0 0 0 0

> <atom.prop.CLASS>
GEND GEHC BENC BENC BENC GENA GENA NCLA NCLA NCLA NCLA NCLA

$$$$
