19_1
     RDKit          3D

 11 11  0  0  0  0  0  0  0  0999 V2000
  -13.2745   10.1267  -13.6507 N   0  0  0  0  0  0  0  0  0  0  0  0
  -14.3678    9.5029  -14.2054 C   0  0  0  0  0  0  0  0  0  0  0  0
  -15.0875    8.4274  -13.7026 C   0  0  0  0  0  0  0  0  0  0  0  0
  -16.0753    8.1972  -14.5946 C   0  0  0  0  0  0  0  0  0  0  0  0
  -15.9050    9.1255  -15.5681 N   0  0  0  0  0  0  0  0  0  0  0  0
  -14.8362    9.9520  -15.3223 N   0  0  0  0  0  0  0  0  0  0  0  0
  -13.1776   11.0285  -14.1342 H   0  0  0  0  0  0  0  0  0  0  0  0
  -13.4114   10.2450  -12.6414 H   0  0  0  0  0  0  0  0  0  0  0  0
  -14.8924    7.8977  -12.8074 H   0  0  0  0  0  0  0  0  0  0  0  0
  -16.8513    7.4773  -14.6178 H   0  0  0  0  0  0  0  0  0  0  0  0
  -16.5053    9.2145  -16.4091 H   0  0  0  0  0  0  0  0  0  0  0  0
  1  2  1  0
  1  7  1  0
  1  8  1  0
  2  3  1  0
  2  6  2  0
  3  4  2  0
  3  9  1  0
  4  5  1  0
  4 10  1  0
  5  6  1  0
  5 11  1  0
M  END
> <intraLJ>
-0.199    

> <intraEL>
-8.716    

> <intraDihe>
2.079     

> <interLJ>
0.000     

> <interEJ>
0.000     

> <gridLJ>
-3.182    

> <gridEL>
0.000     

> <totalE>
-10.017   

> <LGFE>
-3.182  

> <LE>
-0.530  

> <SMILES>
Nc1cc[nH]n1

> <atom.dprop.GFE>
-0.66 -0.26 -0.31 -0.31 -0.77 -0.87 0 0 0 0 0

> <atom.prop.CLASS>
GEND GEHC GEHC GEHC GEND GENA NCLA NCLA NCLA NCLA NCLA

$$$$
