28_1
     RDKit          3D

  9  9  0  0  0  0  0  0  0  0999 V2000
  -22.7405    3.6425   23.2268 C   0  0  0  0  0  0  0  0  0  0  0  0
  -23.8819    4.0866   22.6531 C   0  0  0  0  0  0  0  0  0  0  0  0
  -24.0086    3.3858   21.5133 N   0  0  0  0  0  0  0  0  0  0  0  0
  -22.9526    2.5460   21.4287 C   0  0  0  0  0  0  0  0  0  0  0  0
  -22.1654    2.6782   22.4548 N   0  0  0  0  0  0  0  0  0  0  0  0
  -22.3344    3.9834   24.1460 H   0  0  0  0  0  0  0  0  0  0  0  0
  -24.5786    4.8206   22.9651 H   0  0  0  0  0  0  0  0  0  0  0  0
  -24.7701    3.4646   20.8194 H   0  0  0  0  0  0  0  0  0  0  0  0
  -22.8419    1.8875   20.6039 H   0  0  0  0  0  0  0  0  0  0  0  0
  1  2  2  0
  1  5  1  0
  1  6  1  0
  2  3  1  0
  2  7  1  0
  3  4  1  0
  3  8  1  0
  4  5  2  0
  4  9  1  0
M  END
> <intraLJ>
-0.307    

> <intraEL>
-0.294    

> <intraDihe>
0.000     

> <interLJ>
0.000     

> <interEJ>
0.000     

> <gridLJ>
-3.584    

> <gridEL>
0.000     

> <totalE>
-4.186    

> <LGFE>
-3.584  

> <LE>
-0.717  

> <SMILES>
c1c[nH]cn1

> <atom.dprop.GFE>
-0.3 0.18 -1.4 -0.21 -1.9 0 0 0 0

> <atom.prop.CLASS>
GEHC GEHC GEND GEHC GENA NCLA NCLA NCLA NCLA

$$$$
