26_1
     RDKit          3D

 13 13  0  0  0  0  0  0  0  0999 V2000
  -39.5770   -0.3631   26.9753 O   0  0  0  0  0  0  0  0  0  0  0  0
  -40.9717   -0.6361   26.7729 C   0  0  0  0  0  0  0  0  0  0  0  0
  -41.6110    0.7390   26.6221 C   0  0  0  0  0  0  0  0  0  0  0  0
  -42.1439    1.2544   25.4451 C   0  0  0  0  0  0  0  0  0  0  0  0
  -42.6072    2.4913   25.7303 C   0  0  0  0  0  0  0  0  0  0  0  0
  -42.3484    2.6840   27.0398 N   0  0  0  0  0  0  0  0  0  0  0  0
  -41.7331    1.6093   27.6002 N   0  0  0  0  0  0  0  0  0  0  0  0
  -39.5092    0.6180   26.9452 H   0  0  0  0  0  0  0  0  0  0  0  0
  -41.3774   -1.1245   27.6479 H   0  0  0  0  0  0  0  0  0  0  0  0
  -41.1039   -1.1938   25.8555 H   0  0  0  0  0  0  0  0  0  0  0  0
  -42.1815    0.7734   24.5014 H   0  0  0  0  0  0  0  0  0  0  0  0
  -43.0832    3.2224   25.1294 H   0  0  0  0  0  0  0  0  0  0  0  0
  -42.5815    3.5420   27.5756 H   0  0  0  0  0  0  0  0  0  0  0  0
  1  2  1  0
  1  8  1  0
  2  3  1  0
  2  9  1  0
  2 10  1  0
  3  4  1  0
  3  7  2  0
  4  5  2  0
  4 11  1  0
  5  6  1  0
  5 12  1  0
  6  7  1  0
  6 13  1  0
M  END
> <intraLJ>
0.285     

> <intraEL>
0.188     

> <intraDihe>
6.120     

> <interLJ>
0.000     

> <interEJ>
0.000     

> <gridLJ>
-2.070    

> <gridEL>
0.000     

> <totalE>
4.523     

> <LGFE>
-2.070  

> <LE>
-0.296  

> <SMILES>
OCc1cc[nH]n1

> <atom.dprop.GFE>
-0.44 -0.41 -0.11 -0.093 -0.12 -0.36 -0.54 0 0 0 0 0 0

> <atom.prop.CLASS>
MEOO PRPC GEHC GEHC GEHC GEND GENA NCLA NCLA NCLA NCLA NCLA NCLA

$$$$
