8
     RDKit          3D

  9  9  0  0  0  0  0  0  0  0999 V2000
  -22.0907    4.9311    4.2828 N   0  0  0  0  0  0  0  0  0  0  0  0
  -21.4400    5.0052    5.2217 C   0  0  0  0  0  0  0  0  0  0  0  0
  -20.6075    5.0764    6.3978 C   0  0  0  0  0  0  0  0  0  0  0  0
  -19.6194    4.1628    6.7575 C   0  0  0  0  0  0  0  0  0  0  0  0
  -19.1058    4.6152    7.9092 C   0  0  0  0  0  0  0  0  0  0  0  0
  -19.7481    5.7383    8.2257 O   0  0  0  0  0  0  0  0  0  0  0  0
  -20.6673    6.0151    7.2941 N   0  0  0  0  0  0  0  0  0  0  0  0
  -19.3297    3.2892    6.2339 H   0  0  0  0  0  0  0  0  0  0  0  0
  -18.3367    4.2341    8.5332 H   0  0  0  0  0  0  0  0  0  0  0  0
  1  2  3  0
  2  3  1  0
  3  4  1  0
  3  7  2  0
  4  5  2  0
  4  8  1  0
  5  6  1  0
  5  9  1  0
  6  7  1  0
M  END
> <intraLJ>
-0.818    

> <intraEL>
1.724     

> <intraDihe>
0.000     

> <interLJ>
0.000     

> <interEJ>
0.000     

> <gridLJ>
-5.938    

> <gridEL>
0.000     

> <totalE>
-5.031    

> <LGFE>
-5.938  

> <LE>
-0.848  

> <SMILES>
N#Cc1ccon1

> <atom.dprop.GFE>
-1.4 0 -0.32 -0.26 -0.28 -1.8 -1.9 0 0

> <atom.prop.CLASS>
GENA NCLA GEHC GEHC GEHC GENA GENA NCLA NCLA

$$$$
