39_3
     RDKit          3D

 11 11  0  0  0  0  0  0  0  0999 V2000
  -39.8740    8.1881   23.3569 O   0  0  0  0  0  0  0  0  0  0  0  0
  -40.0356    7.3775   22.3055 C   0  0  0  0  0  0  0  0  0  0  0  0
  -39.3997    6.1514   22.2379 C   0  0  0  0  0  0  0  0  0  0  0  0
  -39.6289    5.3797   21.1063 C   0  0  0  0  0  0  0  0  0  0  0  0
  -40.4733    5.8838   20.1281 C   0  0  0  0  0  0  0  0  0  0  0  0
  -41.0587    7.0874   20.2624 N   0  0  0  0  0  0  0  0  0  0  0  0
  -40.8451    7.8351   21.3441 N   0  0  0  0  0  0  0  0  0  0  0  0
  -40.4256    8.9647   23.1434 H   0  0  0  0  0  0  0  0  0  0  0  0
  -38.7667    5.8261   23.0203 H   0  0  0  0  0  0  0  0  0  0  0  0
  -39.1721    4.4312   20.9914 H   0  0  0  0  0  0  0  0  0  0  0  0
  -40.6779    5.3299   19.2479 H   0  0  0  0  0  0  0  0  0  0  0  0
  1  2  1  0
  1  8  1  0
  2  3  2  0
  2  7  1  0
  3  4  1  0
  3  9  1  0
  4  5  2  0
  4 10  1  0
  5  6  1  0
  5 11  1  0
  6  7  2  0
M  END
> <intraLJ>
16.308    

> <intraEL>
-0.658    

> <intraDihe>
0.000     

> <interLJ>
0.000     

> <interEJ>
0.000     

> <gridLJ>
-3.525    

> <gridEL>
0.000     

> <totalE>
12.125    

> <LGFE>
-3.525  

> <LE>
-0.504  

> <SMILES>
Oc1cccnn1

> <atom.dprop.GFE>
-1.1 -0.14 -0.2 -0.28 -0.28 -0.83 -0.65 0 0 0 0

> <atom.prop.CLASS>
MEOO BENC BENC BENC BENC GENA GENA NCLA NCLA NCLA NCLA

$$$$
