56
     RDKit          3D

 13 12  0  0  0  0  0  0  0  0999 V2000
   17.0018   13.1382  -45.1289 C   0  0  0  0  0  0  0  0  0  0  0  0
   17.0979   12.1192  -46.2335 C   0  0  0  0  0  0  0  0  0  0  0  0
   17.2804   12.4465  -47.3851 O   0  0  0  0  0  0  0  0  0  0  0  0
   16.9702   10.8039  -45.8730 N   0  0  0  0  0  0  0  0  0  0  0  0
   17.0177    9.6919  -46.6601 C   0  0  0  0  0  0  0  0  0  0  0  0
   17.2010    9.8222  -47.8523 O   0  0  0  0  0  0  0  0  0  0  0  0
   16.8612    8.4841  -46.1140 N   0  0  0  0  0  0  0  0  0  0  0  0
   16.8306   12.6329  -44.1901 H   0  0  0  0  0  0  0  0  0  0  0  0
   16.1805   13.7906  -45.3874 H   0  0  0  0  0  0  0  0  0  0  0  0
   17.9395   13.6767  -45.1293 H   0  0  0  0  0  0  0  0  0  0  0  0
   16.8159   10.5884  -44.8861 H   0  0  0  0  0  0  0  0  0  0  0  0
   16.8919    7.6543  -46.7133 H   0  0  0  0  0  0  0  0  0  0  0  0
   16.7039    8.4256  -45.0933 H   0  0  0  0  0  0  0  0  0  0  0  0
  1  2  1  0
  1  8  1  0
  1  9  1  0
  1 10  1  0
  2  3  2  0
  2  4  1  0
  4  5  1  0
  4 11  1  0
  5  6  2  0
  5  7  1  0
  7 12  1  0
  7 13  1  0
M  END
> <intraLJ>
1.001     

> <intraEL>
-10.160   

> <intraDihe>
0.001     

> <interLJ>
0.000     

> <interEJ>
0.000     

> <gridLJ>
-2.420    

> <gridEL>
0.000     

> <totalE>
-11.579   

> <LGFE>
-2.420  

> <LE>
-0.346  

> <SMILES>
CC(=O)NC(N)=O

> <atom.dprop.GFE>
-0.28 0 -0.6 -0.47 0 -0.47 -0.61 0 0 0 0 0 0

> <atom.prop.CLASS>
PRPC NCLA GENA GEND NCLA GENA GEND NCLA NCLA NCLA NCLA NCLA NCLA

$$$$
