10_1
     RDKit          3D

  8  7  0  0  0  0  0  0  0  0999 V2000
   -6.4037   -6.9322    4.2815 O   0  0  0  0  0  0  0  0  0  0  0  0
   -6.3931   -7.1687    2.8494 P   0  0  0  0  0  0  0  0  0  0  0  0
   -5.0875   -7.7751    2.3906 O   0  0  0  0  0  0  0  0  0  0  0  0
   -7.4924   -8.1155    2.4279 O   0  0  0  0  0  0  0  0  0  0  0  0
   -6.5860   -5.8905    2.0682 O   0  0  0  0  0  0  0  0  0  0  0  0
   -4.5400   -7.8716    3.1760 H   0  0  0  0  0  0  0  0  0  0  0  0
   -7.9687   -8.3561    3.2304 H   0  0  0  0  0  0  0  0  0  0  0  0
   -6.6765   -5.1841    2.7163 H   0  0  0  0  0  0  0  0  0  0  0  0
  1  2  2  0
  2  3  1  0
  2  4  1  0
  2  5  1  0
  3  6  1  0
  4  7  1  0
  5  8  1  0
M  END
> <intraLJ>
-0.194    

> <intraEL>
-23.203   

> <intraDihe>
5.381     

> <interLJ>
0.000     

> <interEJ>
0.000     

> <gridLJ>
-3.440    

> <gridEL>
0.000     

> <totalE>
-21.456   

> <LGFE>
-3.440  

> <LE>
-0.688  

> <SMILES>
O=P(O)(O)O

> <atom.dprop.GFE>
-1.1 0 -1.2 -0.43 -0.69 0 0 0

> <atom.prop.CLASS>
GENA NCLA MEOO MEOO MEOO NCLA NCLA NCLA

$$$$
