32
     RDKit          3D

 17 16  0  0  0  0  0  0  0  0999 V2000
   17.6473    6.4708   -6.5729 C   0  0  0  0  0  0  0  0  0  0  0  0
   19.0614    6.1735   -6.0800 C   0  0  0  0  0  0  0  0  0  0  0  0
   19.2639    6.6983   -4.6597 C   0  0  0  0  0  0  0  0  0  0  0  0
   19.9556    6.9245   -6.9392 N   0  0  0  0  0  0  0  0  0  0  0  0
   21.0621    6.4361   -7.5301 C   0  0  0  0  0  0  0  0  0  0  0  0
   21.2670    5.2418   -7.5966 O   0  0  0  0  0  0  0  0  0  0  0  0
   21.9369    7.3113   -8.0285 N   0  0  0  0  0  0  0  0  0  0  0  0
   16.9238    5.9486   -5.9477 H   0  0  0  0  0  0  0  0  0  0  0  0
   17.5402    6.1251   -7.6018 H   0  0  0  0  0  0  0  0  0  0  0  0
   17.4468    7.5416   -6.5326 H   0  0  0  0  0  0  0  0  0  0  0  0
   19.2302    5.0957   -6.1032 H   0  0  0  0  0  0  0  0  0  0  0  0
   19.0823    7.7724   -4.6214 H   0  0  0  0  0  0  0  0  0  0  0  0
   20.2868    6.4992   -4.3397 H   0  0  0  0  0  0  0  0  0  0  0  0
   18.5778    6.1939   -3.9803 H   0  0  0  0  0  0  0  0  0  0  0  0
   20.0214    7.9320   -6.7569 H   0  0  0  0  0  0  0  0  0  0  0  0
   22.8483    6.9140   -8.2812 H   0  0  0  0  0  0  0  0  0  0  0  0
   21.8856    8.2701   -7.6817 H   0  0  0  0  0  0  0  0  0  0  0  0
  1  2  1  0
  1  8  1  0
  1  9  1  0
  1 10  1  0
  2  3  1  0
  2  4  1  0
  2 11  1  0
  3 12  1  0
  3 13  1  0
  3 14  1  0
  4  5  1  0
  4 15  1  0
  5  6  2  0
  5  7  1  0
  7 16  1  0
  7 17  1  0
M  END
> <intraLJ>
-0.660    

> <intraEL>
-9.462    

> <intraDihe>
5.501     

> <interLJ>
0.000     

> <interEJ>
0.000     

> <gridLJ>
-4.562    

> <gridEL>
0.000     

> <totalE>
-9.182    

> <LGFE>
-4.562  

> <LE>
-0.652  

> <SMILES>
CC(C)NC(N)=O

> <atom.dprop.GFE>
-0.56 -0.47 -0.46 -0.87 0 -0.93 -1.3 0 0 0 0 0 0 0 0 0 0

> <atom.prop.CLASS>
PRPC PRPC PRPC GEND NCLA GENA GEND NCLA NCLA NCLA NCLA NCLA NCLA NCLA NCLA NCLA NCLA

$$$$
