36_1
     RDKit          3D

 13 13  0  0  0  0  0  0  0  0999 V2000
  -14.1382    9.6702  -13.7766 N   0  0  0  0  0  0  0  0  0  0  0  0
  -14.0847   11.1273  -13.8063 C   0  0  0  0  0  0  0  0  0  0  0  0
  -12.6070   11.4612  -13.7300 C   0  0  0  0  0  0  0  0  0  0  0  0
  -11.9574   11.9718  -12.6703 C   0  0  0  0  0  0  0  0  0  0  0  0
  -10.6859   12.1233  -12.9993 O   0  0  0  0  0  0  0  0  0  0  0  0
  -10.5987   11.6931  -14.2688 C   0  0  0  0  0  0  0  0  0  0  0  0
  -11.7200   11.2882  -14.7521 N   0  0  0  0  0  0  0  0  0  0  0  0
  -13.6434    9.3964  -12.9350 H   0  0  0  0  0  0  0  0  0  0  0  0
  -13.5903    9.3232  -14.5508 H   0  0  0  0  0  0  0  0  0  0  0  0
  -14.5802   11.5316  -12.9330 H   0  0  0  0  0  0  0  0  0  0  0  0
  -14.4968   11.4960  -14.7376 H   0  0  0  0  0  0  0  0  0  0  0  0
  -12.3107   12.2392  -11.7080 H   0  0  0  0  0  0  0  0  0  0  0  0
   -9.6572   11.7189  -14.7591 H   0  0  0  0  0  0  0  0  0  0  0  0
  1  2  1  0
  1  8  1  0
  1  9  1  0
  2  3  1  0
  2 10  1  0
  2 11  1  0
  3  4  2  0
  3  7  1  0
  4  5  1  0
  4 12  1  0
  5  6  1  0
  6  7  2  0
  6 13  1  0
M  END
> <intraLJ>
0.952     

> <intraEL>
3.213     

> <intraDihe>
2.697     

> <interLJ>
0.000     

> <interEJ>
0.000     

> <gridLJ>
-2.060    

> <gridEL>
0.000     

> <totalE>
4.802     

> <LGFE>
-2.060  

> <LE>
-0.294  

> <SMILES>
NCc1cocn1

> <atom.dprop.GFE>
-0.83 -0.35 -0.046 -0.083 -0.3 -0.1 -0.35 0 0 0 0 0 0

> <atom.prop.CLASS>
GEND PRPC GEHC GEHC GENA GEHC GENA NCLA NCLA NCLA NCLA NCLA NCLA

$$$$
