25
     RDKit          3D

 12 12  0  0  0  0  0  0  0  0999 V2000
  -22.1091    8.6568   11.4430 O   0  0  0  0  0  0  0  0  0  0  0  0
  -23.0897    8.7438   12.1362 C   0  0  0  0  0  0  0  0  0  0  0  0
  -24.0216    9.9201   12.2854 C   0  0  0  0  0  0  0  0  0  0  0  0
  -25.0748    9.3952   13.3027 C   0  0  0  0  0  0  0  0  0  0  0  0
  -24.5873    7.9992   13.5965 C   0  0  0  0  0  0  0  0  0  0  0  0
  -25.0710    7.1833   14.3391 O   0  0  0  0  0  0  0  0  0  0  0  0
  -23.4763    7.7159   12.9029 N   0  0  0  0  0  0  0  0  0  0  0  0
  -24.4810   10.1261   11.3294 H   0  0  0  0  0  0  0  0  0  0  0  0
  -23.4687   10.7508   12.7016 H   0  0  0  0  0  0  0  0  0  0  0  0
  -26.0522    9.3340   12.8453 H   0  0  0  0  0  0  0  0  0  0  0  0
  -25.0477    9.9739   14.2162 H   0  0  0  0  0  0  0  0  0  0  0  0
  -22.9827    6.8195   12.9526 H   0  0  0  0  0  0  0  0  0  0  0  0
  1  2  2  0
  2  3  1  0
  2  7  1  0
  3  4  1  0
  3  8  1  0
  3  9  1  0
  4  5  1  0
  4 10  1  0
  4 11  1  0
  5  6  2  0
  5  7  1  0
  7 12  1  0
M  END
> <intraLJ>
-0.774    

> <intraEL>
-6.724    

> <intraDihe>
1.508     

> <interLJ>
0.000     

> <interEJ>
0.000     

> <gridLJ>
-3.121    

> <gridEL>
0.000     

> <totalE>
-9.111    

> <LGFE>
-3.121  

> <LE>
-0.446  

> <SMILES>
O=C1CCC(=O)N1

> <atom.dprop.GFE>
-0.71 -0.17 -0.35 -0.31 -0.17 -0.68 -0.73 0 0 0 0 0

> <atom.prop.CLASS>
GENA GEHC PRPC PRPC GEHC GENA GEND NCLA NCLA NCLA NCLA NCLA

$$$$
