38
     RDKit          3D

 11 11  0  0  0  0  0  0  0  0999 V2000
   16.5349   -2.6622  -34.1526 C   0  0  0  0  0  0  0  0  0  0  0  0
   17.8455   -2.4299  -33.7574 C   0  0  0  0  0  0  0  0  0  0  0  0
   18.7841   -2.0184  -34.6997 C   0  0  0  0  0  0  0  0  0  0  0  0
   18.4591   -1.8390  -35.9798 N   0  0  0  0  0  0  0  0  0  0  0  0
   17.2059   -2.0580  -36.3788 C   0  0  0  0  0  0  0  0  0  0  0  0
   16.2171   -2.4706  -35.4895 C   0  0  0  0  0  0  0  0  0  0  0  0
   15.8010   -2.9758  -33.4550 H   0  0  0  0  0  0  0  0  0  0  0  0
   18.1317   -2.5635  -32.7468 H   0  0  0  0  0  0  0  0  0  0  0  0
   19.7883   -1.8371  -34.4109 H   0  0  0  0  0  0  0  0  0  0  0  0
   16.9763   -1.9078  -37.4031 H   0  0  0  0  0  0  0  0  0  0  0  0
   15.2301   -2.6369  -35.8351 H   0  0  0  0  0  0  0  0  0  0  0  0
  1  2  2  0
  1  6  1  0
  1  7  1  0
  2  3  1  0
  2  8  1  0
  3  4  2  0
  3  9  1  0
  4  5  1  0
  5  6  2  0
  5 10  1  0
  6 11  1  0
M  END
> <intraLJ>
12.613    

> <intraEL>
0.241     

> <intraDihe>
0.000     

> <interLJ>
0.000     

> <interEJ>
0.000     

> <gridLJ>
-2.163    

> <gridEL>
0.000     

> <totalE>
10.691    

> <LGFE>
-2.163  

> <LE>
-0.361  

> <SMILES>
c1ccncc1

> <atom.dprop.GFE>
-0.21 -0.24 -0.12 -1.4 -0.038 -0.18 0 0 0 0 0

> <atom.prop.CLASS>
BENC BENC GEHC GENA GEHC BENC NCLA NCLA NCLA NCLA NCLA

$$$$
