75
     RDKit          3D

 11 11  0  0  0  0  0  0  0  0999 V2000
   22.5476    4.5917   -6.9790 O   0  0  0  0  0  0  0  0  0  0  0  0
   22.0736    5.9280   -7.0100 S   0  0  0  0  0  0  0  0  0  0  0  0
   22.9775    7.0107   -6.8685 O   0  0  0  0  0  0  0  0  0  0  0  0
   20.7058    6.1764   -5.9797 C   0  0  0  0  0  0  0  0  0  0  0  0
   19.9160    6.6285   -7.3154 C   0  0  0  0  0  0  0  0  0  0  0  0
   21.0792    6.1373   -8.2495 N   0  0  0  0  0  0  0  0  0  0  0  0
   20.7068    6.9920   -5.2687 H   0  0  0  0  0  0  0  0  0  0  0  0
   20.2216    5.3171   -5.5336 H   0  0  0  0  0  0  0  0  0  0  0  0
   19.7770    7.7003   -7.3648 H   0  0  0  0  0  0  0  0  0  0  0  0
   18.9933    6.0848   -7.4651 H   0  0  0  0  0  0  0  0  0  0  0  0
   20.7976    5.3083   -8.7657 H   0  0  0  0  0  0  0  0  0  0  0  0
  1  2  2  0
  2  3  2  0
  2  4  1  0
  2  6  1  0
  4  5  1  0
  4  7  1  0
  4  8  1  0
  5  6  1  0
  5  9  1  0
  5 10  1  0
  6 11  1  0
M  END
> <intraLJ>
-0.439    

> <intraEL>
-3.883    

> <intraDihe>
14.792    

> <interLJ>
0.000     

> <interEJ>
0.000     

> <gridLJ>
-3.907    

> <gridEL>
0.000     

> <totalE>
6.563     

> <LGFE>
-3.907  

> <LE>
-0.651  

> <SMILES>
O=S1(=O)CCN1

> <atom.dprop.GFE>
-0.75 0 -1.2 -0.34 -0.46 -1.1 0 0 0 0 0

> <atom.prop.CLASS>
GENA NCLA GENA PRPC PRPC GEND NCLA NCLA NCLA NCLA NCLA

$$$$
