60_1
     RDKit          3D

 13 13  0  0  0  0  0  0  0  0999 V2000
  -28.1147   -9.9222   28.4236 N   0  0  0  0  0  0  0  0  0  0  0  0
  -28.7801   -9.9039   27.2142 C   0  0  0  0  0  0  0  0  0  0  0  0
  -29.8386   -9.0283   27.0042 C   0  0  0  0  0  0  0  0  0  0  0  0
  -30.4884   -9.0458   25.7776 C   0  0  0  0  0  0  0  0  0  0  0  0
  -30.1227   -9.8754   24.7937 N   0  0  0  0  0  0  0  0  0  0  0  0
  -29.0992  -10.7148   24.9879 C   0  0  0  0  0  0  0  0  0  0  0  0
  -28.4001  -10.7583   26.1856 C   0  0  0  0  0  0  0  0  0  0  0  0
  -27.5836  -10.7800   28.6334 H   0  0  0  0  0  0  0  0  0  0  0  0
  -28.6229   -9.5217   29.2250 H   0  0  0  0  0  0  0  0  0  0  0  0
  -30.1412   -8.3605   27.7663 H   0  0  0  0  0  0  0  0  0  0  0  0
  -31.2993   -8.3887   25.5939 H   0  0  0  0  0  0  0  0  0  0  0  0
  -28.8295  -11.3576   24.1880 H   0  0  0  0  0  0  0  0  0  0  0  0
  -27.5915  -11.4257   26.3151 H   0  0  0  0  0  0  0  0  0  0  0  0
  1  2  1  0
  1  8  1  0
  1  9  1  0
  2  3  2  0
  2  7  1  0
  3  4  1  0
  3 10  1  0
  4  5  2  0
  4 11  1  0
  5  6  1  0
  6  7  2  0
  6 12  1  0
  7 13  1  0
M  END
> <intraLJ>
12.679    

> <intraEL>
-3.147    

> <intraDihe>
1.319     

> <interLJ>
0.000     

> <interEJ>
0.000     

> <gridLJ>
-2.395    

> <gridEL>
0.000     

> <totalE>
8.456     

> <LGFE>
-2.395  

> <LE>
-0.342  

> <SMILES>
Nc1ccncc1

> <atom.dprop.GFE>
-0.42 -0.21 -0.19 -0.23 -0.86 -0.26 -0.23 0 0 0 0 0 0

> <atom.prop.CLASS>
GEND BENC BENC GEHC GENA GEHC BENC NCLA NCLA NCLA NCLA NCLA NCLA

$$$$
