71_2
     RDKit          3D

 19 19  0  0  0  0  0  0  0  0999 V2000
  -33.0820   -5.9461    8.3415 C   0  0  0  0  0  0  0  0  0  0  0  0
  -32.1040   -5.3543    9.3544 C   0  0  0  0  0  0  0  0  0  0  0  0
  -32.0791   -3.8669    9.3648 N   0  0  0  0  0  0  0  0  0  0  0  0
  -32.0984   -3.2087    8.0226 C   0  0  0  0  0  0  0  0  0  0  0  0
  -31.2934   -3.9367    6.9376 C   0  0  0  0  0  0  0  0  0  0  0  0
  -32.1491   -4.8882    6.3140 O   0  0  0  0  0  0  0  0  0  0  0  0
  -32.3905   -6.1204    6.9803 C   0  0  0  0  0  0  0  0  0  0  0  0
  -33.9808   -5.3364    8.2428 H   0  0  0  0  0  0  0  0  0  0  0  0
  -33.3784   -6.9364    8.6905 H   0  0  0  0  0  0  0  0  0  0  0  0
  -31.1109   -5.7345    9.0955 H   0  0  0  0  0  0  0  0  0  0  0  0
  -32.3433   -5.7272   10.3552 H   0  0  0  0  0  0  0  0  0  0  0  0
  -31.2525   -3.5776    9.8726 H   0  0  0  0  0  0  0  0  0  0  0  0
  -32.8821   -3.5223    9.8791 H   0  0  0  0  0  0  0  0  0  0  0  0
  -31.7596   -2.1721    8.1028 H   0  0  0  0  0  0  0  0  0  0  0  0
  -33.1253   -3.1862    7.6484 H   0  0  0  0  0  0  0  0  0  0  0  0
  -30.3874   -4.3950    7.3364 H   0  0  0  0  0  0  0  0  0  0  0  0
  -31.0056   -3.2043    6.1810 H   0  0  0  0  0  0  0  0  0  0  0  0
  -33.0422   -6.7197    6.3402 H   0  0  0  0  0  0  0  0  0  0  0  0
  -31.4553   -6.6719    7.0972 H   0  0  0  0  0  0  0  0  0  0  0  0
  1  2  1  0
  1  7  1  0
  1  8  1  0
  1  9  1  0
  2  3  1  0
  2 10  1  0
  2 11  1  0
  3  4  1  0
  3 12  1  0
  3 13  1  0
  4  5  1  0
  4 14  1  0
  4 15  1  0
  5  6  1  0
  5 16  1  0
  5 17  1  0
  6  7  1  0
  7 18  1  0
  7 19  1  0
M  CHG  1   3   1
M  END
> <intraLJ>
1.159     

> <intraEL>
4.103     

> <intraDihe>
11.900    

> <interLJ>
0.000     

> <interEJ>
0.000     

> <gridLJ>
-2.889    

> <gridEL>
0.000     

> <totalE>
14.273    

> <LGFE>
-2.889  

> <LE>
-0.413  

> <SMILES>
C1C[NH2+]CCOC1

> <atom.dprop.GFE>
-0.2 0.56 -2.8 0.29 -0.11 -0.4 -0.27 0 0 0 0 0 0 0 0 0 0 0 0

> <atom.prop.CLASS>
PRPC PRPC MAMN PRPC PRPC GENA PRPC NCLA NCLA NCLA NCLA NCLA NCLA NCLA NCLA NCLA NCLA NCLA NCLA

$$$$
