18
     RDKit          3D

 13 13  0  0  0  0  0  0  0  0999 V2000
    7.8889   -5.7656    2.8107 O   0  0  0  0  0  0  0  0  0  0  0  0
    7.8573   -5.1579    4.1148 C   0  0  0  0  0  0  0  0  0  0  0  0
    8.8398   -3.8737    4.1537 C   0  0  0  0  0  0  0  0  0  0  0  0
    9.9416   -4.7777    5.1551 S   0  0  0  0  0  0  0  0  0  0  0  0
   10.0552   -4.1869    6.4449 O   0  0  0  0  0  0  0  0  0  0  0  0
   11.1139   -5.1558    4.4423 O   0  0  0  0  0  0  0  0  0  0  0  0
    8.7398   -6.0371    5.1486 C   0  0  0  0  0  0  0  0  0  0  0  0
    7.3140   -5.2899    2.1864 H   0  0  0  0  0  0  0  0  0  0  0  0
    6.8432   -4.9660    4.4389 H   0  0  0  0  0  0  0  0  0  0  0  0
    8.2951   -3.0512    4.5973 H   0  0  0  0  0  0  0  0  0  0  0  0
    9.1164   -3.6349    3.1353 H   0  0  0  0  0  0  0  0  0  0  0  0
    8.9607   -6.9848    4.6749 H   0  0  0  0  0  0  0  0  0  0  0  0
    8.1501   -6.1919    6.0418 H   0  0  0  0  0  0  0  0  0  0  0  0
  1  2  1  0
  1  8  1  0
  2  3  1  0
  2  7  1  0
  2  9  1  0
  3  4  1  0
  3 10  1  0
  3 11  1  0
  4  5  2  0
  4  6  2  0
  4  7  1  0
  7 12  1  0
  7 13  1  0
M  END
> <intraLJ>
0.307     

> <intraEL>
-1.458    

> <intraDihe>
23.153    

> <interLJ>
0.000     

> <interEJ>
0.000     

> <gridLJ>
-3.130    

> <gridEL>
0.000     

> <totalE>
18.871    

> <LGFE>
-3.130  

> <LE>
-0.447  

> <SMILES>
O=S1(=O)CC(O)C1

> <atom.dprop.GFE>
-1 -0.49 -0.15 0 -0.62 -0.58 -0.28 0 0 0 0 0 0

> <atom.prop.CLASS>
MEOO PRPC PRPC NCLA GENA GENA PRPC NCLA NCLA NCLA NCLA NCLA NCLA

$$$$
