2_2
     RDKit          3D

 16 16  0  0  0  0  0  0  0  0999 V2000
   -9.0932    0.6541   11.4770 C   0  0  0  0  0  0  0  0  0  0  0  0
   -9.0935   -0.8860   11.4167 C   0  0  0  0  0  0  0  0  0  0  0  0
   -8.0811   -1.3423   10.5202 O   0  0  0  0  0  0  0  0  0  0  0  0
   -8.2080   -0.8346    9.1916 C   0  0  0  0  0  0  0  0  0  0  0  0
   -8.1936    0.7066    9.2091 C   0  0  0  0  0  0  0  0  0  0  0  0
   -9.2456    1.2551   10.1180 N   0  0  0  0  0  0  0  0  0  0  0  0
   -8.1381    0.9635   11.9105 H   0  0  0  0  0  0  0  0  0  0  0  0
   -9.8935    0.9878   12.1421 H   0  0  0  0  0  0  0  0  0  0  0  0
  -10.0718   -1.2459   11.0906 H   0  0  0  0  0  0  0  0  0  0  0  0
   -8.8958   -1.2855   12.4137 H   0  0  0  0  0  0  0  0  0  0  0  0
   -9.1347   -1.1933    8.7417 H   0  0  0  0  0  0  0  0  0  0  0  0
   -7.3716   -1.1954    8.5897 H   0  0  0  0  0  0  0  0  0  0  0  0
   -8.3278    1.0778    8.1904 H   0  0  0  0  0  0  0  0  0  0  0  0
   -7.2058    1.0196    9.5589 H   0  0  0  0  0  0  0  0  0  0  0  0
   -9.1782    2.2643   10.1674 H   0  0  0  0  0  0  0  0  0  0  0  0
  -10.1561    1.0072    9.7514 H   0  0  0  0  0  0  0  0  0  0  0  0
  1  2  1  0
  1  6  1  0
  1  7  1  0
  1  8  1  0
  2  3  1  0
  2  9  1  0
  2 10  1  0
  3  4  1  0
  4  5  1  0
  4 11  1  0
  4 12  1  0
  5  6  1  0
  5 13  1  0
  5 14  1  0
  6 15  1  0
  6 16  1  0
M  CHG  1   6   1
M  END
> <intraLJ>
0.208     

> <intraEL>
4.487     

> <intraDihe>
1.850     

> <interLJ>
0.000     

> <interEJ>
0.000     

> <gridLJ>
-2.499    

> <gridEL>
0.000     

> <totalE>
4.047     

> <LGFE>
-2.499  

> <LE>
-0.416  

> <SMILES>
C1COCC[NH2+]1

> <atom.dprop.GFE>
0.059 -0.17 -0.21 -0.065 0.12 -2.2 0 0 0 0 0 0 0 0 0 0

> <atom.prop.CLASS>
PRPC PRPC GENA PRPC PRPC MAMN NCLA NCLA NCLA NCLA NCLA NCLA NCLA NCLA NCLA NCLA

$$$$
